
Spectre (R) Circuit Simulator
Version 16.1.0.673.isr14 64bit -- 30 Mar 2018
Copyright (C) 1989-2018 Cadence Design Systems, Inc. All rights reserved worldwide. Cadence and Spectre are registered trademarks of Cadence Design Systems, Inc. All others are the property of their respective holders.

Includes RSA BSAFE(R) Cryptographic or Security Protocol Software from RSA Security, Inc.

User: brunozimmer   Host: itacolomi.lapsi   HostID: 7F0100   PID: 8077
Memory  available: 14.9804 GB  physical: 33.7036 GB
Linux   : CentOS Linux release 7.9.2009 (Core)
CPU Type: Intel(R) Xeon(R) CPU E3-1220 V2 @ 3.10GHz
        Socket: Processors [Frequency]
        0:       0 [2772.3],  1 [2795.0],  2 [2830.6],  3 [2889.0]
        
System load averages (1min, 5min, 15min) : 3.5 %, 10.2 %, 8.8 %


Simulating `Cell.scs' on itacolomi.lapsi at 5:58:30 PM, Thur Feb 25, 2021 (process id: 8077).
Current working directory: /home/brunozimmer/Documentos/ComparacaoMemorias/SRAM/9Bits-5
Command line:
    /tools/cadence/SPECTRE161/tools.lnx86/bin/spectre -64 =mdl  \
        TpWrite.mdl Cell.scs

Loading /tools/cadence/SPECTRE161/tools.lnx86/cmi/lib/64bit/5.0/libinfineon_sh.so ...
Loading /tools/cadence/SPECTRE161/tools.lnx86/cmi/lib/64bit/5.0/libphilips_o_sh.so ...
Loading /tools/cadence/SPECTRE161/tools.lnx86/cmi/lib/64bit/5.0/libphilips_sh.so ...
Loading /tools/cadence/SPECTRE161/tools.lnx86/cmi/lib/64bit/5.0/libsparam_sh.so ...
Loading /tools/cadence/SPECTRE161/tools.lnx86/cmi/lib/64bit/5.0/libstmodels_sh.so ...
Loading /tools/cadence/SPECTRE161/tools.lnx86/spectre/lib/64bit/mdl/libSpectreEH_sh.so ...

Error found by spectre.
    ERROR (MDL-6): Failed to parse MDL control file, `TpWrite.mdl'.


Aggregate audit (5:58:30 PM, Thur Feb 25, 2021):
Time used: CPU = 177 ms, elapsed = 177 ms, util. = 100%.
Time spent in licensing: elapsed = 24.1 ms, percentage of total = 13.6%.
Peak memory used = 55.2 Mbytes.
Simulation started at: 5:58:30 PM, Thur Feb 25, 2021, ended at: 5:58:30 PM, Thur Feb 25, 2021, with elapsed time (wall clock): 177 ms.
spectre completes with 1 error, 0 warnings, and 0 notices.
spectre terminated prematurely due to fatal error.
