
Spectre (R) Circuit Simulator
Version 16.1.0.673.isr14 64bit -- 30 Mar 2018
Copyright (C) 1989-2018 Cadence Design Systems, Inc. All rights reserved worldwide. Cadence and Spectre are registered trademarks of Cadence Design Systems, Inc. All others are the property of their respective holders.

Includes RSA BSAFE(R) Cryptographic or Security Protocol Software from RSA Security, Inc.

User: brunozimmer   Host: itacolomi.lapsi   HostID: 7F0100   PID: 11699
Memory  available: 14.0998 GB  physical: 33.7036 GB
Linux   : CentOS Linux release 7.9.2009 (Core)
CPU Type: Intel(R) Xeon(R) CPU E3-1220 V2 @ 3.10GHz
        Socket: Processors [Frequency]
        0:       0 [2981.4],  1 [2974.2],  2 [3043.8],  3 [3000.3]
        
System load averages (1min, 5min, 15min) : 2.5 %, 3.8 %, 3.5 %


Simulating `Cell.scs' on itacolomi.lapsi at 8:34:47 AM, Mon Mar 29, 2021 (process id: 11699).
Current working directory: /home/brunozimmer/Documentos/ComparacaoMemorias/1MTJ_HF/64-TG
Command line:
    /tools/cadence/SPECTRE161/tools.lnx86/bin/spectre -64 =mdl  \
        Result.mdl Cell.scs

Loading /tools/cadence/SPECTRE161/tools.lnx86/cmi/lib/64bit/5.0/libinfineon_sh.so ...
Loading /tools/cadence/SPECTRE161/tools.lnx86/cmi/lib/64bit/5.0/libphilips_o_sh.so ...
Loading /tools/cadence/SPECTRE161/tools.lnx86/cmi/lib/64bit/5.0/libphilips_sh.so ...
Loading /tools/cadence/SPECTRE161/tools.lnx86/cmi/lib/64bit/5.0/libsparam_sh.so ...
Loading /tools/cadence/SPECTRE161/tools.lnx86/cmi/lib/64bit/5.0/libstmodels_sh.so ...
Loading /tools/cadence/SPECTRE161/tools.lnx86/spectre/lib/64bit/mdl/libSpectreEH_sh.so ...

Warning from spectre.
    WARNING (MDL-1452): line 1, column 1: syntax error before or at: *
            unrecognised statement.

Reading file:  /home/brunozimmer/Documentos/ComparacaoMemorias/1MTJ_HF/64-TG/Cell.scs
Reading file:  /tools/cadence/SPECTRE161/tools.lnx86/spectre/etc/configs/mapsubckt.cfg
Reading file:  /tools/cadence/SPECTRE161/tools.lnx86/spectre/etc/configs/spectre.cfg
Reading file:  /home/brunozimmer/Documentos/ComparacaoMemorias/1MTJ_HF/64-TG/45nm_LP.pm
Reading file:  /home/brunozimmer/Documentos/ComparacaoMemorias/1MTJ_HF/64-TG/MTJT.spi
Reading file:  /home/brunozimmer/Documentos/ComparacaoMemorias/1MTJ_HF/64-TG/TRANSGATE.spi
Time for NDB Parsing: CPU = 190.886 ms, elapsed = 202.392 ms.
Time accumulated: CPU = 211.906 ms, elapsed = 202.399 ms.
Peak resident memory used = 63.2 Mbytes.

Reading link:  /tools/cadence/SPECTRE161/tools.lnx86/spectre/etc/ahdl/discipline.h
Reading file:  /tools/cadence/SPECTRE161/tools.lnx86/spectre/etc/ahdl/disciplines.vams
Reading link:  /tools/cadence/SPECTRE161/tools.lnx86/spectre/etc/ahdl/constants.h
Reading file:  /tools/cadence/SPECTRE161/tools.lnx86/spectre/etc/ahdl/constants.vams
Existing shared object for module bsource_299dda is up to date.
Installed compiled interface for bsource_299dda.
Existing shared object for module bsource_c88c6a is up to date.
Installed compiled interface for bsource_c88c6a.
Existing shared object for module bsource_42ea24 is up to date.
Installed compiled interface for bsource_42ea24.
Existing shared object for module bsource_7b7e87 is up to date.
Installed compiled interface for bsource_7b7e87.
Existing shared object for module bsource_098211 is up to date.
Installed compiled interface for bsource_098211.
Existing shared object for module bsource_ad0f4a is up to date.
Installed compiled interface for bsource_ad0f4a.
Time for Elaboration: CPU = 32.737 ms, elapsed = 32.831 ms.
Time accumulated: CPU = 244.786 ms, elapsed = 235.391 ms.
Peak resident memory used = 72.5 Mbytes.


Time for EDB Visiting: CPU = 24.068 ms, elapsed = 24.0779 ms.
Time accumulated: CPU = 268.985 ms, elapsed = 259.618 ms.
Peak resident memory used = 74.9 Mbytes.


Global user options:
             rawfmt = psfbin
               cmin = 5e-15

Scoped user options:

Circuit inventory:
              nodes 979
              bsim4 96    
     bsource_7b7e87 64    
     bsource_42ea24 64    
     bsource_299dda 64    
     bsource_098211 64    
     bsource_ad0f4a 64    
     bsource_c88c6a 64    
          capacitor 400   
           resistor 456   
               vccs 64    
               vcvs 256   
            vsource 155   

Analysis and control statement inventory:
               tran 1     

Output statements:
             .probe 0     
           .measure 0     
               save 0     

Time for parsing: CPU = 10.175 ms, elapsed = 104.997 ms.
Time accumulated: CPU = 279.292 ms, elapsed = 364.766 ms.
Peak resident memory used = 77.8 Mbytes.

~~~~~~~~~~~~~~~~~~~~~~
Pre-Simulation Summary
~~~~~~~~~~~~~~~~~~~~~~
~~~~~~~~~~~~~~~~~~~~~~

+++++++++++++++
TpRead = (1.5n)
+++++++++++++++

**************************************************************
Transient Analysis `TmpRead-000_TmpRead': time = (0 s -> 5 ns)
**************************************************************
Finding DC approximate solution failed. Try again with try_fast_op set to no.
DC simulation time: CPU = 51.818 ms, elapsed = 51.8332 ms.

Notice from spectre during transient analysis `TmpRead-000_TmpRead', during task `MDLControl'.
    No outputs were found. Loosening output filter criterion to `allpub'.


Opening the PSF file Cell.raw/TmpRead-000_TmpRead.tran.tran ...
Important parameter values:
    start = 0 s
    outputstart = 0 s
    stop = 5 ns
    step = 5 ps
    maxstep = 100 ps
    ic = all
    useprevic = no
    skipdc = no
    reltol = 1e-03
    abstol(V) = 1 uV
    abstol(I) = 1 pA
    temp = 27 C
    tnom = 27 C
    tempeffects = all
    errpreset = moderate
    method = traponly
    lteratio = 3.5
    relref = sigglobal
    cmin = 5 fF
    gmin = 1 pS


Output and IC/nodeset summary:
                 save   155     (current)
                 save   979     (voltage)

........9.....

Notice from spectre at time = 795.988 ps during transient analysis `TmpRead-000_TmpRead', during task `MDLControl'.
    Found trapezoidal ringing on node X64.eISensBin2:bs_p1_bs_p2_flow.
Notice from spectre at time = 823.55 ps during transient analysis `TmpRead-000_TmpRead', during task `MDLControl'.
    Found trapezoidal ringing on node X64.eISensBin2:bs_p1_bs_p2_flow.

........9......

Notice from spectre at time = 857.769 ps during transient analysis `TmpRead-000_TmpRead', during task `MDLControl'.
    Found trapezoidal ringing on node X64.eISensBin2:bs_p1_bs_p2_flow.
Notice from spectre at time = 900.59 ps during transient analysis `TmpRead-000_TmpRead', during task `MDLControl'.
    Found trapezoidal ringing on node X64.eISensBin2:bs_p1_bs_p2_flow.

........9.......

Notice from spectre at time = 950.77 ps during transient analysis `TmpRead-000_TmpRead', during task `MDLControl'.
    Found trapezoidal ringing on node X64.eISensBin2:bs_p1_bs_p2_flow.
        Further occurrences of this notice will be suppressed.

........9........8........7........6........5........4........3........2........1........0
Number of accepted tran steps =             638

Notice from spectre during transient analysis `TmpRead-000_TmpRead', during task `MDLControl'.
    Trapezoidal ringing is detected during tran analysis.
        Please use method=trap for better results and performance.


Maximum value achieved for any signal of each quantity: 
V: V(X64.nBiStable) = 10 V
I: I(X25.eISensBin2:bs_p1_bs_p2_flow) = 307 A
If your circuit contains signals of the same quantity that are vastly different in size (such as high voltage circuitry combined with low voltage control circuitry), you should consider specifying global option `bin_relref=yes'.

~~~~~~~~~~~~~~~~~~~~~~~~~~~~~~~~~
Post-Transient Simulation Summary
~~~~~~~~~~~~~~~~~~~~~~~~~~~~~~~~~
   -   To further speed up simulation, consider
          add ++aps on command line
~~~~~~~~~~~~~~~~~~~~~~~~~~~~~~~~~


During simulation, the CPU load for active processors is :
        Spectre  0 (9.6 %)       1 (3.9 %)       2 (85.5 %)      3 (5.0 %)
        Other   
Initial condition solution time: CPU = 51.928 ms, elapsed = 51.9528 ms.
Intrinsic tran analysis time:    CPU = 1.30574 s, elapsed = 1.32646 s.
Total time required for tran analysis `TmpRead-000_TmpRead': CPU = 1.36662 s, elapsed = 1.38752 s.
Time accumulated: CPU = 1.68168 s, elapsed = 1.8346 s.
Peak resident memory used = 86 Mbytes.


Notice from spectre during task `MDLControl'.
    267 notices suppressed.


Value of Exported Variables in this iteration of the Search loop ( iteration = 1 ) :
CurBL=3.78693e-05
TpRd=2e-10

Warning from spectre.
    WARNING (MDL-1560): Error in search, check search condition validity at start value.


++++++++++++++++
TpWrite = (2.4n)
++++++++++++++++

****************************************************************
Transient Analysis `TmpWrite-000_TmpWrite': time = (0 s -> 5 ns)
****************************************************************
Finding DC approximate solution failed. Try again with try_fast_op set to no.
DC simulation time: CPU = 48.343 ms, elapsed = 48.3909 ms.

Notice from spectre during transient analysis `TmpWrite-000_TmpWrite', during task `MDLControl'.
    No outputs were found. Loosening output filter criterion to `allpub'.


Opening the PSF file Cell.raw/TmpWrite-000_TmpWrite.tran.tran ...
Important parameter values:
    start = 0 s
    outputstart = 0 s
    stop = 5 ns
    step = 5 ps
    maxstep = 100 ps
    ic = all
    useprevic = no
    skipdc = no
    reltol = 1e-03
    abstol(V) = 1 uV
    abstol(I) = 1 pA
    temp = 27 C
    tnom = 27 C
    tempeffects = all
    errpreset = moderate
    method = traponly
    lteratio = 3.5
    relref = sigglobal
    cmin = 5 fF
    gmin = 1 pS


Output and IC/nodeset summary:
                 save   155     (current)
                 save   979     (voltage)

........9.....

Notice from spectre at time = 795.988 ps during transient analysis `TmpWrite-000_TmpWrite', during task `MDLControl'.
    Found trapezoidal ringing on node X64.eISensBin2:bs_p1_bs_p2_flow.
Notice from spectre at time = 823.55 ps during transient analysis `TmpWrite-000_TmpWrite', during task `MDLControl'.
    Found trapezoidal ringing on node X64.eISensBin2:bs_p1_bs_p2_flow.

........9......

Notice from spectre at time = 857.769 ps during transient analysis `TmpWrite-000_TmpWrite', during task `MDLControl'.
    Found trapezoidal ringing on node X64.eISensBin2:bs_p1_bs_p2_flow.
Notice from spectre at time = 900.59 ps during transient analysis `TmpWrite-000_TmpWrite', during task `MDLControl'.
    Found trapezoidal ringing on node X64.eISensBin2:bs_p1_bs_p2_flow.

........9.......

Notice from spectre at time = 950.77 ps during transient analysis `TmpWrite-000_TmpWrite', during task `MDLControl'.
    Found trapezoidal ringing on node X64.eISensBin2:bs_p1_bs_p2_flow.
        Further occurrences of this notice will be suppressed.

........9........8........7........6........5........4........3........2........1........0
Number of accepted tran steps =             673

Notice from spectre during transient analysis `TmpWrite-000_TmpWrite', during task `MDLControl'.
    Trapezoidal ringing is detected during tran analysis.
        Please use method=trap for better results and performance.


Maximum value achieved for any signal of each quantity: 
V: V(X64.nBiStable) = 10 V
I: I(X25.eISensBin2:bs_p1_bs_p2_flow) = 307 A
If your circuit contains signals of the same quantity that are vastly different in size (such as high voltage circuitry combined with low voltage control circuitry), you should consider specifying global option `bin_relref=yes'.

~~~~~~~~~~~~~~~~~~~~~~~~~~~~~~~~~
Post-Transient Simulation Summary
~~~~~~~~~~~~~~~~~~~~~~~~~~~~~~~~~
   -   To further speed up simulation, consider
          add ++aps on command line
~~~~~~~~~~~~~~~~~~~~~~~~~~~~~~~~~


During simulation, the CPU load for active processors is :
        Spectre  0 (8.4 %)       1 (3.9 %)       2 (89.6 %)      3 (3.3 %)
        Other   
Initial condition solution time: CPU = 48.437 ms, elapsed = 48.4951 ms.
Intrinsic tran analysis time:    CPU = 1.39297 s, elapsed = 1.41902 s.
Total time required for tran analysis `TmpWrite-000_TmpWrite': CPU = 1.44897 s, elapsed = 1.47522 s.
Time accumulated: CPU = 3.15498 s, elapsed = 3.40448 s.
Peak resident memory used = 88.2 Mbytes.


Notice from spectre during task `MDLControl'.
    286 notices suppressed.


Value of Exported Variables in this iteration of the Search loop ( iteration = 1 ) :
CurX=0.000209717
TpWrt=3e-10

Warning from spectre.
    WARNING (MDL-1560): Error in search, check search condition validity at start value.


***************************************************
Transient Analysis `PowerRd': time = (0 s -> 10 ns)
***************************************************
Finding DC approximate solution failed. Try again with try_fast_op set to no.
DC simulation time: CPU = 40.461 ms, elapsed = 40.4739 ms.

Notice from spectre during transient analysis `PowerRd', during task `MDLControl'.
    No outputs were found. Loosening output filter criterion to `allpub'.


Opening the PSF file Cell.raw/PowerRd.tran.tran ...
Important parameter values:
    start = 0 s
    outputstart = 0 s
    stop = 10 ns
    step = 10 ps
    maxstep = 200 ps
    ic = all
    useprevic = no
    skipdc = no
    reltol = 1e-03
    abstol(V) = 1 uV
    abstol(I) = 1 pA
    temp = 27 C
    tnom = 27 C
    tempeffects = all
    errpreset = moderate
    method = traponly
    lteratio = 3.5
    relref = sigglobal
    cmin = 5 fF
    gmin = 1 pS


Output and IC/nodeset summary:
                 save   155     (current)
                 save   979     (voltage)

.......

Notice from spectre at time = 825.365 ps during transient analysis `PowerRd', during task `MDLControl'.
    Found trapezoidal ringing on node X48.eISensBin2:bs_p1_bs_p2_flow.
Notice from spectre at time = 868.909 ps during transient analysis `PowerRd', during task `MDLControl'.
    Found trapezoidal ringing on node X48.eISensBin2:bs_p1_bs_p2_flow.

........

Notice from spectre at time = 926.445 ps during transient analysis `PowerRd', during task `MDLControl'.
    Found trapezoidal ringing on node X48.eISensBin2:bs_p1_bs_p2_flow.
Notice from spectre at time = 999 ps during transient analysis `PowerRd', during task `MDLControl'.
    Found trapezoidal ringing on node X48.eISensBin2:bs_p1_bs_p2_flow.

........9.

Notice from spectre at time = 1.05957 ns during transient analysis `PowerRd', during task `MDLControl'.
    Found trapezoidal ringing on node X517.M_i_2:int_b.
        Further occurrences of this notice will be suppressed.

........9........8........7........6........5........4........3........2........1........0
Number of accepted tran steps =             608

Notice from spectre during transient analysis `PowerRd', during task `MDLControl'.
    Trapezoidal ringing is detected during tran analysis.
        Please use method=trap for better results and performance.


Maximum value achieved for any signal of each quantity: 
V: V(X64.nBiStable) = 10 V
I: I(X25.eISensBin2:bs_p1_bs_p2_flow) = 307 A
If your circuit contains signals of the same quantity that are vastly different in size (such as high voltage circuitry combined with low voltage control circuitry), you should consider specifying global option `bin_relref=yes'.

~~~~~~~~~~~~~~~~~~~~~~~~~~~~~~~~~
Post-Transient Simulation Summary
~~~~~~~~~~~~~~~~~~~~~~~~~~~~~~~~~
   -   To further speed up simulation, consider
          add ++aps on command line
~~~~~~~~~~~~~~~~~~~~~~~~~~~~~~~~~


During simulation, the CPU load for active processors is :
        Spectre  0 (8.1 %)       1 (4.2 %)       2 (91.8 %)      3 (5.5 %)
        Other   
Initial condition solution time: CPU = 40.552 ms, elapsed = 40.5769 ms.
Intrinsic tran analysis time:    CPU = 1.27862 s, elapsed = 1.29921 s.
Total time required for tran analysis `PowerRd': CPU = 1.3234 s, elapsed = 1.34412 s.
Time accumulated: CPU = 4.487 s, elapsed = 4.77462 s.
Peak resident memory used = 88.2 Mbytes.


Notice from spectre during task `MDLControl'.
    219 notices suppressed.


**************************************************
Transient Analysis `LeakRd': time = (0 s -> 10 ns)
**************************************************
Finding DC approximate solution failed. Try again with try_fast_op set to no.
DC simulation time: CPU = 64.704 ms, elapsed = 64.7202 ms.

Notice from spectre during transient analysis `LeakRd', during task `MDLControl'.
    No outputs were found. Loosening output filter criterion to `allpub'.


Opening the PSF file Cell.raw/LeakRd.tran.tran ...
Important parameter values:
    start = 0 s
    outputstart = 0 s
    stop = 10 ns
    step = 10 ps
    maxstep = 200 ps
    ic = all
    useprevic = no
    skipdc = no
    reltol = 1e-03
    abstol(V) = 1 uV
    abstol(I) = 1 pA
    temp = 27 C
    tnom = 27 C
    tempeffects = all
    errpreset = moderate
    method = traponly
    lteratio = 3.5
    relref = sigglobal
    cmin = 5 fF
    gmin = 1 pS


Output and IC/nodeset summary:
                 save   155     (current)
                 save   979     (voltage)

.......

Notice from spectre at time = 825.365 ps during transient analysis `LeakRd', during task `MDLControl'.
    Found trapezoidal ringing on node X48.eISensBin2:bs_p1_bs_p2_flow.
Notice from spectre at time = 868.909 ps during transient analysis `LeakRd', during task `MDLControl'.
    Found trapezoidal ringing on node X48.eISensBin2:bs_p1_bs_p2_flow.

........

Notice from spectre at time = 926.445 ps during transient analysis `LeakRd', during task `MDLControl'.
    Found trapezoidal ringing on node X48.eISensBin2:bs_p1_bs_p2_flow.
Notice from spectre at time = 999 ps during transient analysis `LeakRd', during task `MDLControl'.
    Found trapezoidal ringing on node X48.eISensBin2:bs_p1_bs_p2_flow.

........9.

Notice from spectre at time = 1.05957 ns during transient analysis `LeakRd', during task `MDLControl'.
    Found trapezoidal ringing on node X517.M_i_2:int_b.
        Further occurrences of this notice will be suppressed.

........9........8........7........6........5........4........3........2........1........0
Number of accepted tran steps =             608

Notice from spectre during transient analysis `LeakRd', during task `MDLControl'.
    Trapezoidal ringing is detected during tran analysis.
        Please use method=trap for better results and performance.


Maximum value achieved for any signal of each quantity: 
V: V(X64.nBiStable) = 10 V
I: I(X25.eISensBin2:bs_p1_bs_p2_flow) = 307 A
If your circuit contains signals of the same quantity that are vastly different in size (such as high voltage circuitry combined with low voltage control circuitry), you should consider specifying global option `bin_relref=yes'.

~~~~~~~~~~~~~~~~~~~~~~~~~~~~~~~~~
Post-Transient Simulation Summary
~~~~~~~~~~~~~~~~~~~~~~~~~~~~~~~~~
   -   To further speed up simulation, consider
          add ++aps on command line
~~~~~~~~~~~~~~~~~~~~~~~~~~~~~~~~~


During simulation, the CPU load for active processors is :
        Spectre  0 (7.3 %)       1 (4.7 %)       2 (93.2 %)      3 (4.9 %)
        Other   
Initial condition solution time: CPU = 64.815 ms, elapsed = 64.842 ms.
Intrinsic tran analysis time:    CPU = 1.33721 s, elapsed = 1.35232 s.
Total time required for tran analysis `LeakRd': CPU = 1.4102 s, elapsed = 1.42553 s.
Time accumulated: CPU = 5.90614 s, elapsed = 6.23153 s.
Peak resident memory used = 88.3 Mbytes.


Notice from spectre during task `MDLControl'.
    219 notices suppressed.


****************************************************
Transient Analysis `PowerWrt': time = (0 s -> 10 ns)
****************************************************
Finding DC approximate solution failed. Try again with try_fast_op set to no.
DC simulation time: CPU = 39.622 ms, elapsed = 39.634 ms.

Notice from spectre during transient analysis `PowerWrt', during task `MDLControl'.
    No outputs were found. Loosening output filter criterion to `allpub'.


Opening the PSF file Cell.raw/PowerWrt.tran.tran ...
Important parameter values:
    start = 0 s
    outputstart = 0 s
    stop = 10 ns
    step = 10 ps
    maxstep = 200 ps
    ic = all
    useprevic = no
    skipdc = no
    reltol = 1e-03
    abstol(V) = 1 uV
    abstol(I) = 1 pA
    temp = 27 C
    tnom = 27 C
    tempeffects = all
    errpreset = moderate
    method = traponly
    lteratio = 3.5
    relref = sigglobal
    cmin = 5 fF
    gmin = 1 pS


Output and IC/nodeset summary:
                 save   155     (current)
                 save   979     (voltage)

.......

Notice from spectre at time = 825.365 ps during transient analysis `PowerWrt', during task `MDLControl'.
    Found trapezoidal ringing on node X48.eISensBin2:bs_p1_bs_p2_flow.
Notice from spectre at time = 868.909 ps during transient analysis `PowerWrt', during task `MDLControl'.
    Found trapezoidal ringing on node X48.eISensBin2:bs_p1_bs_p2_flow.

........

Notice from spectre at time = 926.445 ps during transient analysis `PowerWrt', during task `MDLControl'.
    Found trapezoidal ringing on node X48.eISensBin2:bs_p1_bs_p2_flow.
Notice from spectre at time = 999 ps during transient analysis `PowerWrt', during task `MDLControl'.
    Found trapezoidal ringing on node X48.eISensBin2:bs_p1_bs_p2_flow.

........9.

Notice from spectre at time = 1.05957 ns during transient analysis `PowerWrt', during task `MDLControl'.
    Found trapezoidal ringing on node X517.M_i_2:int_b.
        Further occurrences of this notice will be suppressed.

........9........8........7........6........5........4........3........2........1........0
Number of accepted tran steps =             608

Notice from spectre during transient analysis `PowerWrt', during task `MDLControl'.
    Trapezoidal ringing is detected during tran analysis.
        Please use method=trap for better results and performance.


Maximum value achieved for any signal of each quantity: 
V: V(X64.nBiStable) = 10 V
I: I(X25.eISensBin2:bs_p1_bs_p2_flow) = 307 A
If your circuit contains signals of the same quantity that are vastly different in size (such as high voltage circuitry combined with low voltage control circuitry), you should consider specifying global option `bin_relref=yes'.

~~~~~~~~~~~~~~~~~~~~~~~~~~~~~~~~~
Post-Transient Simulation Summary
~~~~~~~~~~~~~~~~~~~~~~~~~~~~~~~~~
   -   To further speed up simulation, consider
          add ++aps on command line
~~~~~~~~~~~~~~~~~~~~~~~~~~~~~~~~~


During simulation, the CPU load for active processors is :
        Spectre  0 (6.8 %)       1 (5.0 %)       2 (93.8 %)      3 (4.5 %)
        Other   
Initial condition solution time: CPU = 39.704 ms, elapsed = 39.7248 ms.
Intrinsic tran analysis time:    CPU = 1.2839 s, elapsed = 1.30335 s.
Total time required for tran analysis `PowerWrt': CPU = 1.32898 s, elapsed = 1.34857 s.
Time accumulated: CPU = 7.24419 s, elapsed = 7.61262 s.
Peak resident memory used = 88.3 Mbytes.


Notice from spectre during task `MDLControl'.
    219 notices suppressed.


***************************************************
Transient Analysis `LeakWrt': time = (0 s -> 10 ns)
***************************************************
Finding DC approximate solution failed. Try again with try_fast_op set to no.
DC simulation time: CPU = 40.495 ms, elapsed = 40.5221 ms.

Notice from spectre during transient analysis `LeakWrt', during task `MDLControl'.
    No outputs were found. Loosening output filter criterion to `allpub'.


Opening the PSF file Cell.raw/LeakWrt.tran.tran ...
Important parameter values:
    start = 0 s
    outputstart = 0 s
    stop = 10 ns
    step = 10 ps
    maxstep = 200 ps
    ic = all
    useprevic = no
    skipdc = no
    reltol = 1e-03
    abstol(V) = 1 uV
    abstol(I) = 1 pA
    temp = 27 C
    tnom = 27 C
    tempeffects = all
    errpreset = moderate
    method = traponly
    lteratio = 3.5
    relref = sigglobal
    cmin = 5 fF
    gmin = 1 pS


Output and IC/nodeset summary:
                 save   155     (current)
                 save   979     (voltage)

.......

Notice from spectre at time = 825.365 ps during transient analysis `LeakWrt', during task `MDLControl'.
    Found trapezoidal ringing on node X48.eISensBin2:bs_p1_bs_p2_flow.
Notice from spectre at time = 868.909 ps during transient analysis `LeakWrt', during task `MDLControl'.
    Found trapezoidal ringing on node X48.eISensBin2:bs_p1_bs_p2_flow.

........

Notice from spectre at time = 926.445 ps during transient analysis `LeakWrt', during task `MDLControl'.
    Found trapezoidal ringing on node X48.eISensBin2:bs_p1_bs_p2_flow.
Notice from spectre at time = 999 ps during transient analysis `LeakWrt', during task `MDLControl'.
    Found trapezoidal ringing on node X48.eISensBin2:bs_p1_bs_p2_flow.

........9.

Notice from spectre at time = 1.05957 ns during transient analysis `LeakWrt', during task `MDLControl'.
    Found trapezoidal ringing on node X517.M_i_2:int_b.
        Further occurrences of this notice will be suppressed.

........9........8........7........6........5........4........3........2........1........0
Number of accepted tran steps =             608

Notice from spectre during transient analysis `LeakWrt', during task `MDLControl'.
    Trapezoidal ringing is detected during tran analysis.
        Please use method=trap for better results and performance.


Maximum value achieved for any signal of each quantity: 
V: V(X64.nBiStable) = 10 V
I: I(X25.eISensBin2:bs_p1_bs_p2_flow) = 307 A
If your circuit contains signals of the same quantity that are vastly different in size (such as high voltage circuitry combined with low voltage control circuitry), you should consider specifying global option `bin_relref=yes'.

~~~~~~~~~~~~~~~~~~~~~~~~~~~~~~~~~
Post-Transient Simulation Summary
~~~~~~~~~~~~~~~~~~~~~~~~~~~~~~~~~
   -   To further speed up simulation, consider
          add ++aps on command line
~~~~~~~~~~~~~~~~~~~~~~~~~~~~~~~~~


During simulation, the CPU load for active processors is :
        Spectre  0 (6.6 %)       1 (5.0 %)       2 (80.1 %)      3 (18.8 %)
        Other   
Initial condition solution time: CPU = 40.594 ms, elapsed = 40.6401 ms.
Intrinsic tran analysis time:    CPU = 1.33453 s, elapsed = 1.35162 s.
Total time required for tran analysis `LeakWrt': CPU = 1.38187 s, elapsed = 1.39913 s.
Time accumulated: CPU = 8.63517 s, elapsed = 9.03844 s.
Peak resident memory used = 88.3 Mbytes.


Notice from spectre during task `MDLControl'.
    219 notices suppressed.


**********************
DC Analysis `LeakStat'
**********************

Notice from spectre during DC analysis `LeakStat', during task `MDLControl'.
    No outputs were found. Loosening output filter criterion to `allpub'.

Finding DC approximate solution failed. Try again with try_fast_op set to no.

Opening the PSF file Cell.raw/LeakStat.dc ...
Important parameter values:
    reltol = 1e-03
    abstol(V) = 1 uV
    abstol(I) = 1 pA
    temp = 27 C
    tnom = 27 C
    tempeffects = all
    gmindc = 1 pS

Notice from spectre during DC analysis `LeakStat', during task `MDLControl'.
    Bad pivoting is found during DC analysis. Option dc_pivot_check=yes is recommended for possible improvement of convergence.


Maximum value achieved for any signal of each quantity: 
V: V(X64.nBiStable) = 10 V
I: I(X8.eBiStable:p) = 933.8 uA

Notice from spectre during info, during DC analysis `LeakStat', during task `MDLControl'.
    No outputs were found. Loosening output filter criterion to `allpub'.

***************************************
Operating-Point information `LeakStat':
***************************************
Operating point computed in DC analysis `LeakStat' at T = 27 C.

    V(BL1) = 679.131 mV
    V(BL1T) = 800 mV
    V(BL2) = 679.131 mV
    V(BL2T) = 800 mV
    V(BL3) = 679.131 mV
    V(BL3T) = 800 mV
    V(BL4) = 769.251 mV
    V(BL4T) = 800 mV
    V(BL5) = 679.131 mV
    V(BL5T) = 800 mV
    V(BL6) = 679.131 mV
    V(BL6T) = 800 mV
    V(BL7) = 679.131 mV
    V(BL7T) = 800 mV
    V(BL8) = 679.131 mV
    V(BL8T) = 800 mV
    V(ENBl1) = 0 V
    V(ENBl2) = 0 V
    V(ENBl3) = 0 V
    V(ENBl4) = 1.6 V
    V(ENBl5) = 0 V
    V(ENBl6) = 0 V
    V(ENBl7) = 0 V
    V(ENBl8) = 0 V
    V(ENWl) = 0 V
    V(ENWl1) = 1.6 V
    V(NM1) = 679.131 mV
    V(NM2) = 679.131 mV
    V(NM3) = 679.131 mV
    V(NM4) = 679.131 mV
    V(NM5) = 679.131 mV
    V(NM6) = 679.131 mV
    V(NM7) = 679.131 mV
    V(NM8) = 679.131 mV
    V(NM9) = 679.131 mV
    V(NM10) = 679.131 mV
    V(NM11) = 679.131 mV
    V(NM12) = 679.131 mV
    V(NM13) = 679.131 mV
    V(NM14) = 679.131 mV
    V(NM15) = 679.131 mV
    V(NM16) = 679.131 mV
    V(NM17) = 679.131 mV
    V(NM18) = 679.131 mV
    V(NM19) = 679.131 mV
    V(NM20) = 679.131 mV
    V(NM21) = 679.131 mV
    V(NM22) = 679.131 mV
    V(NM23) = 679.131 mV
    V(NM24) = 679.131 mV
    V(NM25) = 769.251 mV
    V(NM26) = 769.251 mV
    V(NM27) = 769.251 mV
    V(NM28) = 769.251 mV
    V(NM29) = 769.251 mV
    V(NM30) = 769.251 mV
    V(NM31) = 769.251 mV
    V(NM32) = 769.251 mV
    V(NM33) = 679.131 mV
    V(NM34) = 679.131 mV
    V(NM35) = 679.131 mV
    V(NM36) = 679.131 mV
    V(NM37) = 679.131 mV
    V(NM38) = 679.131 mV
    V(NM39) = 679.131 mV
    V(NM40) = 679.131 mV
    V(NM41) = 679.131 mV
    V(NM42) = 679.131 mV
    V(NM43) = 679.131 mV
    V(NM44) = 679.131 mV
    V(NM45) = 679.131 mV
    V(NM46) = 679.131 mV
    V(NM47) = 679.131 mV
    V(NM48) = 679.131 mV
    V(NM49) = 679.131 mV
    V(NM50) = 679.131 mV
    V(NM51) = 679.131 mV
    V(NM52) = 679.131 mV
    V(NM53) = 679.131 mV
    V(NM54) = 679.131 mV
    V(NM55) = 679.131 mV
    V(NM56) = 679.131 mV
    V(NM57) = 679.131 mV
    V(NM58) = 679.131 mV
    V(NM59) = 679.131 mV
    V(NM60) = 679.131 mV
    V(NM61) = 679.131 mV
    V(NM62) = 679.131 mV
    V(NM63) = 679.131 mV
    V(NM64) = 679.131 mV
    I(Vbl1:p) = -241.739 fA
    I(Vbl1en:p) = 4.9379 nA
    I(Vbl2:p) = -241.739 fA
    I(Vbl2en:p) = 4.9379 nA
    I(Vbl3:p) = -241.739 fA
    I(Vbl3en:p) = 4.9379 nA
    I(Vbl4:p) = -376.329 uA
    I(Vbl4en:p) = -25.1885 nA
    I(Vbl5:p) = -241.739 fA
    I(Vbl5en:p) = 4.9379 nA
    I(Vbl6:p) = -241.739 fA
    I(Vbl6en:p) = 4.9379 nA
    I(Vbl7:p) = -241.739 fA
    I(Vbl7en:p) = 4.9379 nA
    I(Vbl8:p) = -241.739 fA
    I(Vbl8en:p) = 4.9379 nA
    V(Vdd) = 1.6 V
    I(Vtest1:p) = -6.29253 uA
    I(Vtest2:p) = -6.29253 uA
    I(Vtest3:p) = -6.29253 uA
    I(Vtest4:p) = -6.29253 uA
    I(Vtest5:p) = -6.29253 uA
    I(Vtest6:p) = -6.29253 uA
    I(Vtest7:p) = -6.29253 uA
    I(Vtest8:p) = -23.8653 uA
    I(Vtest9:p) = -6.29253 uA
    I(Vtest10:p) = -6.29253 uA
    I(Vtest11:p) = -6.29253 uA
    I(Vtest12:p) = -6.29253 uA
    I(Vtest13:p) = -6.29253 uA
    I(Vtest14:p) = -6.29253 uA
    I(Vtest15:p) = -6.29253 uA
    I(Vtest16:p) = -23.8653 uA
    I(Vtest17:p) = -6.29253 uA
    I(Vtest18:p) = -6.29253 uA
    I(Vtest19:p) = -6.29253 uA
    I(Vtest20:p) = -6.29253 uA
    I(Vtest21:p) = -6.29253 uA
    I(Vtest22:p) = -6.29253 uA
    I(Vtest23:p) = -6.29253 uA
    I(Vtest24:p) = -23.8653 uA
    I(Vtest25:p) = 44.0477 uA
    I(Vtest26:p) = 44.0477 uA
    I(Vtest27:p) = 44.0477 uA
    I(Vtest28:p) = 44.0477 uA
    I(Vtest29:p) = 44.0477 uA
    I(Vtest30:p) = 44.0477 uA
    I(Vtest31:p) = 44.0477 uA
    I(Vtest32:p) = -8.92984 uA
    I(Vtest33:p) = -6.29253 uA
    I(Vtest34:p) = -6.29253 uA
    I(Vtest35:p) = -6.29253 uA
    I(Vtest36:p) = -6.29253 uA
    I(Vtest37:p) = -6.29253 uA
    I(Vtest38:p) = -6.29253 uA
    I(Vtest39:p) = -6.29253 uA
    I(Vtest40:p) = -23.8653 uA
    I(Vtest41:p) = -6.29253 uA
    I(Vtest42:p) = -6.29253 uA
    I(Vtest43:p) = -6.29253 uA
    I(Vtest44:p) = -6.29253 uA
    I(Vtest45:p) = -6.29253 uA
    I(Vtest46:p) = -6.29253 uA
    I(Vtest47:p) = -6.29253 uA
    I(Vtest48:p) = -23.8653 uA
    I(Vtest49:p) = -6.29253 uA
    I(Vtest50:p) = -6.29253 uA
    I(Vtest51:p) = -6.29253 uA
    I(Vtest52:p) = -6.29253 uA
    I(Vtest53:p) = -6.29253 uA
    I(Vtest54:p) = -6.29253 uA
    I(Vtest55:p) = -6.29253 uA
    I(Vtest56:p) = -23.8653 uA
    I(Vtest57:p) = -6.29253 uA
    I(Vtest58:p) = -6.29253 uA
    I(Vtest59:p) = -6.29253 uA
    I(Vtest60:p) = -6.29253 uA
    I(Vtest61:p) = -6.29253 uA
    I(Vtest62:p) = -6.29253 uA
    I(Vtest63:p) = -6.29253 uA
    I(Vtest64:p) = -23.8653 uA
    I(Vvdd:p) = -4.20216 uA
    I(Vwl1:p) = -219.088 fA
    I(Vwl2:p) = -219.088 fA
    I(Vwl3:p) = -219.088 fA
    I(Vwl4:p) = -219.088 fA
    I(Vwl5:p) = -219.088 fA
    I(Vwl6:p) = -219.088 fA
    I(Vwl7:p) = -219.088 fA
    I(Vwl8:p) = -175.987 uA
    I(Vwlen1:p) = -25.1578 nA
    I(Vwlen:p) = 74.0685 nA
    V(WL1) = 690.456 mV
    V(WL1T) = 800 mV
    V(WL2) = 690.456 mV
    V(WL2T) = 800 mV
    V(WL3) = 690.456 mV
    V(WL3T) = 800 mV
    V(WL4) = 690.456 mV
    V(WL4T) = 800 mV
    V(WL5) = 690.456 mV
    V(WL5T) = 800 mV
    V(WL6) = 690.456 mV
    V(WL6T) = 800 mV
    V(WL7) = 690.456 mV
    V(WL7T) = 800 mV
    V(WL8) = 785.321 mV
    V(WL8T) = 800 mV
    V(WL9) = 800.568 mV
    V(WL9T) = 800.284 mV
    V(WL10) = 800.568 mV
    V(WL10T) = 800.284 mV
    V(WL11) = 800.568 mV
    V(WL11T) = 800.284 mV
    V(WL12) = 800.568 mV
    V(WL12T) = 800.284 mV
    V(WL13) = 800.568 mV
    V(WL13T) = 800.284 mV
    V(WL14) = 800.568 mV
    V(WL14T) = 800.284 mV
    V(WL15) = 800.568 mV
    V(WL15T) = 800.284 mV
    V(WL16) = 800.568 mV
    V(WL16T) = 800.284 mV
    V(X1.n50) = -1.56445 pV
    V(X1.n51) = 1.01 V
    V(X1.n60) = 0 V
    V(X1.n61) = 1.01 V
    V(X1.nBiStable) = 656.69 mV
    V(X1.nFeedback) = 65.669 uV
    V(X1.nINeg) = 0 V
    V(X1.nIPos) = 64.9473 mV
    V(X1.nRVFit) = 1.79977 V
    V(X1.nVCR1) = 679.131 mV
    V(X1.nVCtrl) = 1.79977 V
    V(X1.nVDec) = -65.5968 mV
    V(X1.nVTMR) = 1.8 V
    I(X1.vISample:p) = -6.29253 uA
    V(X2.n50) = -1.56445 pV
    V(X2.n51) = 1.01 V
    V(X2.n60) = 0 V
    V(X2.n61) = 1.01 V
    V(X2.nBiStable) = 656.69 mV
    V(X2.nFeedback) = 65.669 uV
    V(X2.nINeg) = 0 V
    V(X2.nIPos) = 64.9473 mV
    V(X2.nRVFit) = 1.79977 V
    V(X2.nVCR1) = 679.131 mV
    V(X2.nVCtrl) = 1.79977 V
    V(X2.nVDec) = -65.5968 mV
    V(X2.nVTMR) = 1.8 V
    I(X2.vISample:p) = -6.29253 uA
    V(X3.n50) = -1.56445 pV
    V(X3.n51) = 1.01 V
    V(X3.n60) = 0 V
    V(X3.n61) = 1.01 V
    V(X3.nBiStable) = 656.69 mV
    V(X3.nFeedback) = 65.669 uV
    V(X3.nINeg) = 0 V
    V(X3.nIPos) = 64.9473 mV
    V(X3.nRVFit) = 1.79977 V
    V(X3.nVCR1) = 679.131 mV
    V(X3.nVCtrl) = 1.79977 V
    V(X3.nVDec) = -65.5968 mV
    V(X3.nVTMR) = 1.8 V
    I(X3.vISample:p) = -6.29253 uA
    V(X4.n50) = -1.56445 pV
    V(X4.n51) = 1.01 V
    V(X4.n60) = 0 V
    V(X4.n61) = 1.01 V
    V(X4.nBiStable) = 656.69 mV
    V(X4.nFeedback) = 65.669 uV
    V(X4.nINeg) = 0 V
    V(X4.nIPos) = 64.9473 mV
    V(X4.nRVFit) = 1.79977 V
    V(X4.nVCR1) = 679.131 mV
    V(X4.nVCtrl) = 1.79977 V
    V(X4.nVDec) = -65.5968 mV
    V(X4.nVTMR) = 1.8 V
    I(X4.vISample:p) = -6.29253 uA
    V(X5.n50) = -1.56445 pV
    V(X5.n51) = 1.01 V
    V(X5.n60) = 0 V
    V(X5.n61) = 1.01 V
    V(X5.nBiStable) = 656.69 mV
    V(X5.nFeedback) = 65.669 uV
    V(X5.nINeg) = 0 V
    V(X5.nIPos) = 64.9473 mV
    V(X5.nRVFit) = 1.79977 V
    V(X5.nVCR1) = 679.131 mV
    V(X5.nVCtrl) = 1.79977 V
    V(X5.nVDec) = -65.5968 mV
    V(X5.nVTMR) = 1.8 V
    I(X5.vISample:p) = -6.29253 uA
    V(X6.n50) = -1.56445 pV
    V(X6.n51) = 1.01 V
    V(X6.n60) = 0 V
    V(X6.n61) = 1.01 V
    V(X6.nBiStable) = 656.69 mV
    V(X6.nFeedback) = 65.669 uV
    V(X6.nINeg) = 0 V
    V(X6.nIPos) = 64.9473 mV
    V(X6.nRVFit) = 1.79977 V
    V(X6.nVCR1) = 679.131 mV
    V(X6.nVCtrl) = 1.79977 V
    V(X6.nVDec) = -65.5968 mV
    V(X6.nVTMR) = 1.8 V
    I(X6.vISample:p) = -6.29253 uA
    V(X7.n50) = -1.56445 pV
    V(X7.n51) = 1.01 V
    V(X7.n60) = 0 V
    V(X7.n61) = 1.01 V
    V(X7.nBiStable) = 656.69 mV
    V(X7.nFeedback) = 65.669 uV
    V(X7.nINeg) = 0 V
    V(X7.nIPos) = 64.9473 mV
    V(X7.nRVFit) = 1.79977 V
    V(X7.nVCR1) = 679.131 mV
    V(X7.nVCtrl) = 1.79977 V
    V(X7.nVDec) = -65.5968 mV
    V(X7.nVTMR) = 1.8 V
    I(X7.vISample:p) = -6.29253 uA
    V(X8.n50) = -6.99586 pV
    V(X8.n51) = 1.01 V
    V(X8.n60) = 0 V
    V(X8.n61) = 1.01 V
    V(X8.nBiStable) = 10 V
    V(X8.nFeedback) = 661.606 mV
    V(X8.nINeg) = 0 V
    V(X8.nIPos) = 269.538 mV
    V(X8.nRVFit) = 4.44954 V
    V(X8.nVCR1) = 679.131 mV
    V(X8.nVCtrl) = 4.44954 V
    V(X8.nVDec) = -272.234 mV
    V(X8.nVTMR) = 4.5 V
    I(X8.vISample:p) = -23.8653 uA
    V(X9.n50) = -1.56445 pV
    V(X9.n51) = 1.01 V
    V(X9.n60) = 0 V
    V(X9.n61) = 1.01 V
    V(X9.nBiStable) = 656.69 mV
    V(X9.nFeedback) = 65.669 uV
    V(X9.nINeg) = 0 V
    V(X9.nIPos) = 64.9473 mV
    V(X9.nRVFit) = 1.79977 V
    V(X9.nVCR1) = 679.131 mV
    V(X9.nVCtrl) = 1.79977 V
    V(X9.nVDec) = -65.5968 mV
    V(X9.nVTMR) = 1.8 V
    I(X9.vISample:p) = -6.29253 uA
    V(X10.n50) = -1.56445 pV
    V(X10.n51) = 1.01 V
    V(X10.n60) = 0 V
    V(X10.n61) = 1.01 V
    V(X10.nBiStable) = 656.69 mV
    V(X10.nFeedback) = 65.669 uV
    V(X10.nINeg) = 0 V
    V(X10.nIPos) = 64.9473 mV
    V(X10.nRVFit) = 1.79977 V
    V(X10.nVCR1) = 679.131 mV
    V(X10.nVCtrl) = 1.79977 V
    V(X10.nVDec) = -65.5968 mV
    V(X10.nVTMR) = 1.8 V
    I(X10.vISample:p) = -6.29253 uA
    V(X11.n50) = -1.56445 pV
    V(X11.n51) = 1.01 V
    V(X11.n60) = 0 V
    V(X11.n61) = 1.01 V
    V(X11.nBiStable) = 656.69 mV
    V(X11.nFeedback) = 65.669 uV
    V(X11.nINeg) = 0 V
    V(X11.nIPos) = 64.9473 mV
    V(X11.nRVFit) = 1.79977 V
    V(X11.nVCR1) = 679.131 mV
    V(X11.nVCtrl) = 1.79977 V
    V(X11.nVDec) = -65.5968 mV
    V(X11.nVTMR) = 1.8 V
    I(X11.vISample:p) = -6.29253 uA
    V(X12.n50) = -1.56445 pV
    V(X12.n51) = 1.01 V
    V(X12.n60) = 0 V
    V(X12.n61) = 1.01 V
    V(X12.nBiStable) = 656.69 mV
    V(X12.nFeedback) = 65.669 uV
    V(X12.nINeg) = 0 V
    V(X12.nIPos) = 64.9473 mV
    V(X12.nRVFit) = 1.79977 V
    V(X12.nVCR1) = 679.131 mV
    V(X12.nVCtrl) = 1.79977 V
    V(X12.nVDec) = -65.5968 mV
    V(X12.nVTMR) = 1.8 V
    I(X12.vISample:p) = -6.29253 uA
    V(X13.n50) = -1.56445 pV
    V(X13.n51) = 1.01 V
    V(X13.n60) = 0 V
    V(X13.n61) = 1.01 V
    V(X13.nBiStable) = 656.69 mV
    V(X13.nFeedback) = 65.669 uV
    V(X13.nINeg) = 0 V
    V(X13.nIPos) = 64.9473 mV
    V(X13.nRVFit) = 1.79977 V
    V(X13.nVCR1) = 679.131 mV
    V(X13.nVCtrl) = 1.79977 V
    V(X13.nVDec) = -65.5968 mV
    V(X13.nVTMR) = 1.8 V
    I(X13.vISample:p) = -6.29253 uA
    V(X14.n50) = -1.56445 pV
    V(X14.n51) = 1.01 V
    V(X14.n60) = 0 V
    V(X14.n61) = 1.01 V
    V(X14.nBiStable) = 656.69 mV
    V(X14.nFeedback) = 65.669 uV
    V(X14.nINeg) = 0 V
    V(X14.nIPos) = 64.9473 mV
    V(X14.nRVFit) = 1.79977 V
    V(X14.nVCR1) = 679.131 mV
    V(X14.nVCtrl) = 1.79977 V
    V(X14.nVDec) = -65.5968 mV
    V(X14.nVTMR) = 1.8 V
    I(X14.vISample:p) = -6.29253 uA
    V(X15.n50) = -1.56445 pV
    V(X15.n51) = 1.01 V
    V(X15.n60) = 0 V
    V(X15.n61) = 1.01 V
    V(X15.nBiStable) = 656.69 mV
    V(X15.nFeedback) = 65.669 uV
    V(X15.nINeg) = 0 V
    V(X15.nIPos) = 64.9473 mV
    V(X15.nRVFit) = 1.79977 V
    V(X15.nVCR1) = 679.131 mV
    V(X15.nVCtrl) = 1.79977 V
    V(X15.nVDec) = -65.5968 mV
    V(X15.nVTMR) = 1.8 V
    I(X15.vISample:p) = -6.29253 uA
    V(X16.n50) = -6.99586 pV
    V(X16.n51) = 1.01 V
    V(X16.n60) = 0 V
    V(X16.n61) = 1.01 V
    V(X16.nBiStable) = 10 V
    V(X16.nFeedback) = 661.606 mV
    V(X16.nINeg) = 0 V
    V(X16.nIPos) = 269.538 mV
    V(X16.nRVFit) = 4.44954 V
    V(X16.nVCR1) = 679.131 mV
    V(X16.nVCtrl) = 4.44954 V
    V(X16.nVDec) = -272.234 mV
    V(X16.nVTMR) = 4.5 V
    I(X16.vISample:p) = -23.8653 uA
    V(X17.n50) = -1.56445 pV
    V(X17.n51) = 1.01 V
    V(X17.n60) = 0 V
    V(X17.n61) = 1.01 V
    V(X17.nBiStable) = 656.69 mV
    V(X17.nFeedback) = 65.669 uV
    V(X17.nINeg) = 0 V
    V(X17.nIPos) = 64.9473 mV
    V(X17.nRVFit) = 1.79977 V
    V(X17.nVCR1) = 679.131 mV
    V(X17.nVCtrl) = 1.79977 V
    V(X17.nVDec) = -65.5968 mV
    V(X17.nVTMR) = 1.8 V
    I(X17.vISample:p) = -6.29253 uA
    V(X18.n50) = -1.56445 pV
    V(X18.n51) = 1.01 V
    V(X18.n60) = 0 V
    V(X18.n61) = 1.01 V
    V(X18.nBiStable) = 656.69 mV
    V(X18.nFeedback) = 65.669 uV
    V(X18.nINeg) = 0 V
    V(X18.nIPos) = 64.9473 mV
    V(X18.nRVFit) = 1.79977 V
    V(X18.nVCR1) = 679.131 mV
    V(X18.nVCtrl) = 1.79977 V
    V(X18.nVDec) = -65.5968 mV
    V(X18.nVTMR) = 1.8 V
    I(X18.vISample:p) = -6.29253 uA
    V(X19.n50) = -1.56445 pV
    V(X19.n51) = 1.01 V
    V(X19.n60) = 0 V
    V(X19.n61) = 1.01 V
    V(X19.nBiStable) = 656.69 mV
    V(X19.nFeedback) = 65.669 uV
    V(X19.nINeg) = 0 V
    V(X19.nIPos) = 64.9473 mV
    V(X19.nRVFit) = 1.79977 V
    V(X19.nVCR1) = 679.131 mV
    V(X19.nVCtrl) = 1.79977 V
    V(X19.nVDec) = -65.5968 mV
    V(X19.nVTMR) = 1.8 V
    I(X19.vISample:p) = -6.29253 uA
    V(X20.n50) = -1.56445 pV
    V(X20.n51) = 1.01 V
    V(X20.n60) = 0 V
    V(X20.n61) = 1.01 V
    V(X20.nBiStable) = 656.69 mV
    V(X20.nFeedback) = 65.669 uV
    V(X20.nINeg) = 0 V
    V(X20.nIPos) = 64.9473 mV
    V(X20.nRVFit) = 1.79977 V
    V(X20.nVCR1) = 679.131 mV
    V(X20.nVCtrl) = 1.79977 V
    V(X20.nVDec) = -65.5968 mV
    V(X20.nVTMR) = 1.8 V
    I(X20.vISample:p) = -6.29253 uA
    V(X21.n50) = -1.56445 pV
    V(X21.n51) = 1.01 V
    V(X21.n60) = 0 V
    V(X21.n61) = 1.01 V
    V(X21.nBiStable) = 656.69 mV
    V(X21.nFeedback) = 65.669 uV
    V(X21.nINeg) = 0 V
    V(X21.nIPos) = 64.9473 mV
    V(X21.nRVFit) = 1.79977 V
    V(X21.nVCR1) = 679.131 mV
    V(X21.nVCtrl) = 1.79977 V
    V(X21.nVDec) = -65.5968 mV
    V(X21.nVTMR) = 1.8 V
    I(X21.vISample:p) = -6.29253 uA
    V(X22.n50) = -1.56445 pV
    V(X22.n51) = 1.01 V
    V(X22.n60) = 0 V
    V(X22.n61) = 1.01 V
    V(X22.nBiStable) = 656.69 mV
    V(X22.nFeedback) = 65.669 uV
    V(X22.nINeg) = 0 V
    V(X22.nIPos) = 64.9473 mV
    V(X22.nRVFit) = 1.79977 V
    V(X22.nVCR1) = 679.131 mV
    V(X22.nVCtrl) = 1.79977 V
    V(X22.nVDec) = -65.5968 mV
    V(X22.nVTMR) = 1.8 V
    I(X22.vISample:p) = -6.29253 uA
    V(X23.n50) = -1.56445 pV
    V(X23.n51) = 1.01 V
    V(X23.n60) = 0 V
    V(X23.n61) = 1.01 V
    V(X23.nBiStable) = 656.69 mV
    V(X23.nFeedback) = 65.669 uV
    V(X23.nINeg) = 0 V
    V(X23.nIPos) = 64.9473 mV
    V(X23.nRVFit) = 1.79977 V
    V(X23.nVCR1) = 679.131 mV
    V(X23.nVCtrl) = 1.79977 V
    V(X23.nVDec) = -65.5968 mV
    V(X23.nVTMR) = 1.8 V
    I(X23.vISample:p) = -6.29253 uA
    V(X24.n50) = -6.99586 pV
    V(X24.n51) = 1.01 V
    V(X24.n60) = 0 V
    V(X24.n61) = 1.01 V
    V(X24.nBiStable) = 10 V
    V(X24.nFeedback) = 661.606 mV
    V(X24.nINeg) = 0 V
    V(X24.nIPos) = 269.538 mV
    V(X24.nRVFit) = 4.44954 V
    V(X24.nVCR1) = 679.131 mV
    V(X24.nVCtrl) = 4.44954 V
    V(X24.nVDec) = -272.234 mV
    V(X24.nVTMR) = 4.5 V
    I(X24.vISample:p) = -23.8653 uA
    V(X25.n50) = 1.01 V
    V(X25.n51) = -18.9727 pV
    V(X25.n60) = 1.01 V
    V(X25.n61) = 0 V
    V(X25.nBiStable) = -5.59598 V
    V(X25.nFeedback) = -559.598 uV
    V(X25.nINeg) = 553.448 mV
    V(X25.nIPos) = 0 V
    V(X25.nRVFit) = 1.78886 V
    V(X25.nVCR1) = 769.251 mV
    V(X25.nVCtrl) = 1.78886 V
    V(X25.nVDec) = 558.983 mV
    V(X25.nVTMR) = 1.8 V
    I(X25.vISample:p) = 44.0477 uA
    V(X26.n50) = 1.01 V
    V(X26.n51) = -18.9727 pV
    V(X26.n60) = 1.01 V
    V(X26.n61) = 0 V
    V(X26.nBiStable) = -5.59598 V
    V(X26.nFeedback) = -559.598 uV
    V(X26.nINeg) = 553.448 mV
    V(X26.nIPos) = 0 V
    V(X26.nRVFit) = 1.78886 V
    V(X26.nVCR1) = 769.251 mV
    V(X26.nVCtrl) = 1.78886 V
    V(X26.nVDec) = 558.983 mV
    V(X26.nVTMR) = 1.8 V
    I(X26.vISample:p) = 44.0477 uA
    V(X27.n50) = 1.01 V
    V(X27.n51) = -18.9727 pV
    V(X27.n60) = 1.01 V
    V(X27.n61) = 0 V
    V(X27.nBiStable) = -5.59598 V
    V(X27.nFeedback) = -559.598 uV
    V(X27.nINeg) = 553.448 mV
    V(X27.nIPos) = 0 V
    V(X27.nRVFit) = 1.78886 V
    V(X27.nVCR1) = 769.251 mV
    V(X27.nVCtrl) = 1.78886 V
    V(X27.nVDec) = 558.983 mV
    V(X27.nVTMR) = 1.8 V
    I(X27.vISample:p) = 44.0477 uA
    V(X28.n50) = 1.01 V
    V(X28.n51) = -18.9727 pV
    V(X28.n60) = 1.01 V
    V(X28.n61) = 0 V
    V(X28.nBiStable) = -5.59598 V
    V(X28.nFeedback) = -559.598 uV
    V(X28.nINeg) = 553.448 mV
    V(X28.nIPos) = 0 V
    V(X28.nRVFit) = 1.78886 V
    V(X28.nVCR1) = 769.251 mV
    V(X28.nVCtrl) = 1.78886 V
    V(X28.nVDec) = 558.983 mV
    V(X28.nVTMR) = 1.8 V
    I(X28.vISample:p) = 44.0477 uA
    V(X29.n50) = 1.01 V
    V(X29.n51) = -18.9727 pV
    V(X29.n60) = 1.01 V
    V(X29.n61) = 0 V
    V(X29.nBiStable) = -5.59598 V
    V(X29.nFeedback) = -559.598 uV
    V(X29.nINeg) = 553.448 mV
    V(X29.nIPos) = 0 V
    V(X29.nRVFit) = 1.78886 V
    V(X29.nVCR1) = 769.251 mV
    V(X29.nVCtrl) = 1.78886 V
    V(X29.nVDec) = 558.983 mV
    V(X29.nVTMR) = 1.8 V
    I(X29.vISample:p) = 44.0477 uA
    V(X30.n50) = 1.01 V
    V(X30.n51) = -18.9727 pV
    V(X30.n60) = 1.01 V
    V(X30.n61) = 0 V
    V(X30.nBiStable) = -5.59598 V
    V(X30.nFeedback) = -559.598 uV
    V(X30.nINeg) = 553.448 mV
    V(X30.nIPos) = 0 V
    V(X30.nRVFit) = 1.78886 V
    V(X30.nVCR1) = 769.251 mV
    V(X30.nVCtrl) = 1.78886 V
    V(X30.nVDec) = 558.983 mV
    V(X30.nVTMR) = 1.8 V
    I(X30.vISample:p) = 44.0477 uA
    V(X31.n50) = 1.01 V
    V(X31.n51) = -18.9727 pV
    V(X31.n60) = 1.01 V
    V(X31.n61) = 0 V
    V(X31.nBiStable) = -5.59598 V
    V(X31.nFeedback) = -559.598 uV
    V(X31.nINeg) = 553.448 mV
    V(X31.nIPos) = 0 V
    V(X31.nRVFit) = 1.78886 V
    V(X31.nVCR1) = 769.251 mV
    V(X31.nVCtrl) = 1.78886 V
    V(X31.nVDec) = 558.983 mV
    V(X31.nVTMR) = 1.8 V
    I(X31.vISample:p) = 44.0477 uA
    V(X32.n50) = -2.24887 pV
    V(X32.n51) = 1.01 V
    V(X32.n60) = 0 V
    V(X32.n61) = 1.01 V
    V(X32.nBiStable) = 944.449 mV
    V(X32.nFeedback) = 94.4449 uV
    V(X32.nINeg) = 0 V
    V(X32.nIPos) = 93.4069 mV
    V(X32.nRVFit) = 1.79954 V
    V(X32.nVCR1) = 769.251 mV
    V(X32.nVCtrl) = 1.79954 V
    V(X32.nVDec) = -94.341 mV
    V(X32.nVTMR) = 1.8 V
    I(X32.vISample:p) = -8.92984 uA
    V(X33.n50) = -1.56445 pV
    V(X33.n51) = 1.01 V
    V(X33.n60) = 0 V
    V(X33.n61) = 1.01 V
    V(X33.nBiStable) = 656.69 mV
    V(X33.nFeedback) = 65.669 uV
    V(X33.nINeg) = 0 V
    V(X33.nIPos) = 64.9473 mV
    V(X33.nRVFit) = 1.79977 V
    V(X33.nVCR1) = 679.131 mV
    V(X33.nVCtrl) = 1.79977 V
    V(X33.nVDec) = -65.5968 mV
    V(X33.nVTMR) = 1.8 V
    I(X33.vISample:p) = -6.29253 uA
    V(X34.n50) = -1.56445 pV
    V(X34.n51) = 1.01 V
    V(X34.n60) = 0 V
    V(X34.n61) = 1.01 V
    V(X34.nBiStable) = 656.69 mV
    V(X34.nFeedback) = 65.669 uV
    V(X34.nINeg) = 0 V
    V(X34.nIPos) = 64.9473 mV
    V(X34.nRVFit) = 1.79977 V
    V(X34.nVCR1) = 679.131 mV
    V(X34.nVCtrl) = 1.79977 V
    V(X34.nVDec) = -65.5968 mV
    V(X34.nVTMR) = 1.8 V
    I(X34.vISample:p) = -6.29253 uA
    V(X35.n50) = -1.56445 pV
    V(X35.n51) = 1.01 V
    V(X35.n60) = 0 V
    V(X35.n61) = 1.01 V
    V(X35.nBiStable) = 656.69 mV
    V(X35.nFeedback) = 65.669 uV
    V(X35.nINeg) = 0 V
    V(X35.nIPos) = 64.9473 mV
    V(X35.nRVFit) = 1.79977 V
    V(X35.nVCR1) = 679.131 mV
    V(X35.nVCtrl) = 1.79977 V
    V(X35.nVDec) = -65.5968 mV
    V(X35.nVTMR) = 1.8 V
    I(X35.vISample:p) = -6.29253 uA
    V(X36.n50) = -1.56445 pV
    V(X36.n51) = 1.01 V
    V(X36.n60) = 0 V
    V(X36.n61) = 1.01 V
    V(X36.nBiStable) = 656.69 mV
    V(X36.nFeedback) = 65.669 uV
    V(X36.nINeg) = 0 V
    V(X36.nIPos) = 64.9473 mV
    V(X36.nRVFit) = 1.79977 V
    V(X36.nVCR1) = 679.131 mV
    V(X36.nVCtrl) = 1.79977 V
    V(X36.nVDec) = -65.5968 mV
    V(X36.nVTMR) = 1.8 V
    I(X36.vISample:p) = -6.29253 uA
    V(X37.n50) = -1.56445 pV
    V(X37.n51) = 1.01 V
    V(X37.n60) = 0 V
    V(X37.n61) = 1.01 V
    V(X37.nBiStable) = 656.69 mV
    V(X37.nFeedback) = 65.669 uV
    V(X37.nINeg) = 0 V
    V(X37.nIPos) = 64.9473 mV
    V(X37.nRVFit) = 1.79977 V
    V(X37.nVCR1) = 679.131 mV
    V(X37.nVCtrl) = 1.79977 V
    V(X37.nVDec) = -65.5968 mV
    V(X37.nVTMR) = 1.8 V
    I(X37.vISample:p) = -6.29253 uA
    V(X38.n50) = -1.56445 pV
    V(X38.n51) = 1.01 V
    V(X38.n60) = 0 V
    V(X38.n61) = 1.01 V
    V(X38.nBiStable) = 656.69 mV
    V(X38.nFeedback) = 65.669 uV
    V(X38.nINeg) = 0 V
    V(X38.nIPos) = 64.9473 mV
    V(X38.nRVFit) = 1.79977 V
    V(X38.nVCR1) = 679.131 mV
    V(X38.nVCtrl) = 1.79977 V
    V(X38.nVDec) = -65.5968 mV
    V(X38.nVTMR) = 1.8 V
    I(X38.vISample:p) = -6.29253 uA
    V(X39.n50) = -1.56445 pV
    V(X39.n51) = 1.01 V
    V(X39.n60) = 0 V
    V(X39.n61) = 1.01 V
    V(X39.nBiStable) = 656.69 mV
    V(X39.nFeedback) = 65.669 uV
    V(X39.nINeg) = 0 V
    V(X39.nIPos) = 64.9473 mV
    V(X39.nRVFit) = 1.79977 V
    V(X39.nVCR1) = 679.131 mV
    V(X39.nVCtrl) = 1.79977 V
    V(X39.nVDec) = -65.5968 mV
    V(X39.nVTMR) = 1.8 V
    I(X39.vISample:p) = -6.29253 uA
    V(X40.n50) = -6.99586 pV
    V(X40.n51) = 1.01 V
    V(X40.n60) = 0 V
    V(X40.n61) = 1.01 V
    V(X40.nBiStable) = 10 V
    V(X40.nFeedback) = 661.606 mV
    V(X40.nINeg) = 0 V
    V(X40.nIPos) = 269.538 mV
    V(X40.nRVFit) = 4.44954 V
    V(X40.nVCR1) = 679.131 mV
    V(X40.nVCtrl) = 4.44954 V
    V(X40.nVDec) = -272.234 mV
    V(X40.nVTMR) = 4.5 V
    I(X40.vISample:p) = -23.8653 uA
    V(X41.n50) = -1.56445 pV
    V(X41.n51) = 1.01 V
    V(X41.n60) = 0 V
    V(X41.n61) = 1.01 V
    V(X41.nBiStable) = 656.69 mV
    V(X41.nFeedback) = 65.669 uV
    V(X41.nINeg) = 0 V
    V(X41.nIPos) = 64.9473 mV
    V(X41.nRVFit) = 1.79977 V
    V(X41.nVCR1) = 679.131 mV
    V(X41.nVCtrl) = 1.79977 V
    V(X41.nVDec) = -65.5968 mV
    V(X41.nVTMR) = 1.8 V
    I(X41.vISample:p) = -6.29253 uA
    V(X42.n50) = -1.56445 pV
    V(X42.n51) = 1.01 V
    V(X42.n60) = 0 V
    V(X42.n61) = 1.01 V
    V(X42.nBiStable) = 656.69 mV
    V(X42.nFeedback) = 65.669 uV
    V(X42.nINeg) = 0 V
    V(X42.nIPos) = 64.9473 mV
    V(X42.nRVFit) = 1.79977 V
    V(X42.nVCR1) = 679.131 mV
    V(X42.nVCtrl) = 1.79977 V
    V(X42.nVDec) = -65.5968 mV
    V(X42.nVTMR) = 1.8 V
    I(X42.vISample:p) = -6.29253 uA
    V(X43.n50) = -1.56445 pV
    V(X43.n51) = 1.01 V
    V(X43.n60) = 0 V
    V(X43.n61) = 1.01 V
    V(X43.nBiStable) = 656.69 mV
    V(X43.nFeedback) = 65.669 uV
    V(X43.nINeg) = 0 V
    V(X43.nIPos) = 64.9473 mV
    V(X43.nRVFit) = 1.79977 V
    V(X43.nVCR1) = 679.131 mV
    V(X43.nVCtrl) = 1.79977 V
    V(X43.nVDec) = -65.5968 mV
    V(X43.nVTMR) = 1.8 V
    I(X43.vISample:p) = -6.29253 uA
    V(X44.n50) = -1.56445 pV
    V(X44.n51) = 1.01 V
    V(X44.n60) = 0 V
    V(X44.n61) = 1.01 V
    V(X44.nBiStable) = 656.69 mV
    V(X44.nFeedback) = 65.669 uV
    V(X44.nINeg) = 0 V
    V(X44.nIPos) = 64.9473 mV
    V(X44.nRVFit) = 1.79977 V
    V(X44.nVCR1) = 679.131 mV
    V(X44.nVCtrl) = 1.79977 V
    V(X44.nVDec) = -65.5968 mV
    V(X44.nVTMR) = 1.8 V
    I(X44.vISample:p) = -6.29253 uA
    V(X45.n50) = -1.56445 pV
    V(X45.n51) = 1.01 V
    V(X45.n60) = 0 V
    V(X45.n61) = 1.01 V
    V(X45.nBiStable) = 656.69 mV
    V(X45.nFeedback) = 65.669 uV
    V(X45.nINeg) = 0 V
    V(X45.nIPos) = 64.9473 mV
    V(X45.nRVFit) = 1.79977 V
    V(X45.nVCR1) = 679.131 mV
    V(X45.nVCtrl) = 1.79977 V
    V(X45.nVDec) = -65.5968 mV
    V(X45.nVTMR) = 1.8 V
    I(X45.vISample:p) = -6.29253 uA
    V(X46.n50) = -1.56445 pV
    V(X46.n51) = 1.01 V
    V(X46.n60) = 0 V
    V(X46.n61) = 1.01 V
    V(X46.nBiStable) = 656.69 mV
    V(X46.nFeedback) = 65.669 uV
    V(X46.nINeg) = 0 V
    V(X46.nIPos) = 64.9473 mV
    V(X46.nRVFit) = 1.79977 V
    V(X46.nVCR1) = 679.131 mV
    V(X46.nVCtrl) = 1.79977 V
    V(X46.nVDec) = -65.5968 mV
    V(X46.nVTMR) = 1.8 V
    I(X46.vISample:p) = -6.29253 uA
    V(X47.n50) = -1.56445 pV
    V(X47.n51) = 1.01 V
    V(X47.n60) = 0 V
    V(X47.n61) = 1.01 V
    V(X47.nBiStable) = 656.69 mV
    V(X47.nFeedback) = 65.669 uV
    V(X47.nINeg) = 0 V
    V(X47.nIPos) = 64.9473 mV
    V(X47.nRVFit) = 1.79977 V
    V(X47.nVCR1) = 679.131 mV
    V(X47.nVCtrl) = 1.79977 V
    V(X47.nVDec) = -65.5968 mV
    V(X47.nVTMR) = 1.8 V
    I(X47.vISample:p) = -6.29253 uA
    V(X48.n50) = -6.99586 pV
    V(X48.n51) = 1.01 V
    V(X48.n60) = 0 V
    V(X48.n61) = 1.01 V
    V(X48.nBiStable) = 10 V
    V(X48.nFeedback) = 661.606 mV
    V(X48.nINeg) = 0 V
    V(X48.nIPos) = 269.538 mV
    V(X48.nRVFit) = 4.44954 V
    V(X48.nVCR1) = 679.131 mV
    V(X48.nVCtrl) = 4.44954 V
    V(X48.nVDec) = -272.234 mV
    V(X48.nVTMR) = 4.5 V
    I(X48.vISample:p) = -23.8653 uA
    V(X49.n50) = -1.56445 pV
    V(X49.n51) = 1.01 V
    V(X49.n60) = 0 V
    V(X49.n61) = 1.01 V
    V(X49.nBiStable) = 656.69 mV
    V(X49.nFeedback) = 65.669 uV
    V(X49.nINeg) = 0 V
    V(X49.nIPos) = 64.9473 mV
    V(X49.nRVFit) = 1.79977 V
    V(X49.nVCR1) = 679.131 mV
    V(X49.nVCtrl) = 1.79977 V
    V(X49.nVDec) = -65.5968 mV
    V(X49.nVTMR) = 1.8 V
    I(X49.vISample:p) = -6.29253 uA
    V(X50.n50) = -1.56445 pV
    V(X50.n51) = 1.01 V
    V(X50.n60) = 0 V
    V(X50.n61) = 1.01 V
    V(X50.nBiStable) = 656.69 mV
    V(X50.nFeedback) = 65.669 uV
    V(X50.nINeg) = 0 V
    V(X50.nIPos) = 64.9473 mV
    V(X50.nRVFit) = 1.79977 V
    V(X50.nVCR1) = 679.131 mV
    V(X50.nVCtrl) = 1.79977 V
    V(X50.nVDec) = -65.5968 mV
    V(X50.nVTMR) = 1.8 V
    I(X50.vISample:p) = -6.29253 uA
    V(X51.n50) = -1.56445 pV
    V(X51.n51) = 1.01 V
    V(X51.n60) = 0 V
    V(X51.n61) = 1.01 V
    V(X51.nBiStable) = 656.69 mV
    V(X51.nFeedback) = 65.669 uV
    V(X51.nINeg) = 0 V
    V(X51.nIPos) = 64.9473 mV
    V(X51.nRVFit) = 1.79977 V
    V(X51.nVCR1) = 679.131 mV
    V(X51.nVCtrl) = 1.79977 V
    V(X51.nVDec) = -65.5968 mV
    V(X51.nVTMR) = 1.8 V
    I(X51.vISample:p) = -6.29253 uA
    V(X52.n50) = -1.56445 pV
    V(X52.n51) = 1.01 V
    V(X52.n60) = 0 V
    V(X52.n61) = 1.01 V
    V(X52.nBiStable) = 656.69 mV
    V(X52.nFeedback) = 65.669 uV
    V(X52.nINeg) = 0 V
    V(X52.nIPos) = 64.9473 mV
    V(X52.nRVFit) = 1.79977 V
    V(X52.nVCR1) = 679.131 mV
    V(X52.nVCtrl) = 1.79977 V
    V(X52.nVDec) = -65.5968 mV
    V(X52.nVTMR) = 1.8 V
    I(X52.vISample:p) = -6.29253 uA
    V(X53.n50) = -1.56445 pV
    V(X53.n51) = 1.01 V
    V(X53.n60) = 0 V
    V(X53.n61) = 1.01 V
    V(X53.nBiStable) = 656.69 mV
    V(X53.nFeedback) = 65.669 uV
    V(X53.nINeg) = 0 V
    V(X53.nIPos) = 64.9473 mV
    V(X53.nRVFit) = 1.79977 V
    V(X53.nVCR1) = 679.131 mV
    V(X53.nVCtrl) = 1.79977 V
    V(X53.nVDec) = -65.5968 mV
    V(X53.nVTMR) = 1.8 V
    I(X53.vISample:p) = -6.29253 uA
    V(X54.n50) = -1.56445 pV
    V(X54.n51) = 1.01 V
    V(X54.n60) = 0 V
    V(X54.n61) = 1.01 V
    V(X54.nBiStable) = 656.69 mV
    V(X54.nFeedback) = 65.669 uV
    V(X54.nINeg) = 0 V
    V(X54.nIPos) = 64.9473 mV
    V(X54.nRVFit) = 1.79977 V
    V(X54.nVCR1) = 679.131 mV
    V(X54.nVCtrl) = 1.79977 V
    V(X54.nVDec) = -65.5968 mV
    V(X54.nVTMR) = 1.8 V
    I(X54.vISample:p) = -6.29253 uA
    V(X55.n50) = -1.56445 pV
    V(X55.n51) = 1.01 V
    V(X55.n60) = 0 V
    V(X55.n61) = 1.01 V
    V(X55.nBiStable) = 656.69 mV
    V(X55.nFeedback) = 65.669 uV
    V(X55.nINeg) = 0 V
    V(X55.nIPos) = 64.9473 mV
    V(X55.nRVFit) = 1.79977 V
    V(X55.nVCR1) = 679.131 mV
    V(X55.nVCtrl) = 1.79977 V
    V(X55.nVDec) = -65.5968 mV
    V(X55.nVTMR) = 1.8 V
    I(X55.vISample:p) = -6.29253 uA
    V(X56.n50) = -6.99586 pV
    V(X56.n51) = 1.01 V
    V(X56.n60) = 0 V
    V(X56.n61) = 1.01 V
    V(X56.nBiStable) = 10 V
    V(X56.nFeedback) = 661.606 mV
    V(X56.nINeg) = 0 V
    V(X56.nIPos) = 269.538 mV
    V(X56.nRVFit) = 4.44954 V
    V(X56.nVCR1) = 679.131 mV
    V(X56.nVCtrl) = 4.44954 V
    V(X56.nVDec) = -272.234 mV
    V(X56.nVTMR) = 4.5 V
    I(X56.vISample:p) = -23.8653 uA
    V(X57.n50) = -1.56445 pV
    V(X57.n51) = 1.01 V
    V(X57.n60) = 0 V
    V(X57.n61) = 1.01 V
    V(X57.nBiStable) = 656.69 mV
    V(X57.nFeedback) = 65.669 uV
    V(X57.nINeg) = 0 V
    V(X57.nIPos) = 64.9473 mV
    V(X57.nRVFit) = 1.79977 V
    V(X57.nVCR1) = 679.131 mV
    V(X57.nVCtrl) = 1.79977 V
    V(X57.nVDec) = -65.5968 mV
    V(X57.nVTMR) = 1.8 V
    I(X57.vISample:p) = -6.29253 uA
    V(X58.n50) = -1.56445 pV
    V(X58.n51) = 1.01 V
    V(X58.n60) = 0 V
    V(X58.n61) = 1.01 V
    V(X58.nBiStable) = 656.69 mV
    V(X58.nFeedback) = 65.669 uV
    V(X58.nINeg) = 0 V
    V(X58.nIPos) = 64.9473 mV
    V(X58.nRVFit) = 1.79977 V
    V(X58.nVCR1) = 679.131 mV
    V(X58.nVCtrl) = 1.79977 V
    V(X58.nVDec) = -65.5968 mV
    V(X58.nVTMR) = 1.8 V
    I(X58.vISample:p) = -6.29253 uA
    V(X59.n50) = -1.56445 pV
    V(X59.n51) = 1.01 V
    V(X59.n60) = 0 V
    V(X59.n61) = 1.01 V
    V(X59.nBiStable) = 656.69 mV
    V(X59.nFeedback) = 65.669 uV
    V(X59.nINeg) = 0 V
    V(X59.nIPos) = 64.9473 mV
    V(X59.nRVFit) = 1.79977 V
    V(X59.nVCR1) = 679.131 mV
    V(X59.nVCtrl) = 1.79977 V
    V(X59.nVDec) = -65.5968 mV
    V(X59.nVTMR) = 1.8 V
    I(X59.vISample:p) = -6.29253 uA
    V(X60.n50) = -1.56445 pV
    V(X60.n51) = 1.01 V
    V(X60.n60) = 0 V
    V(X60.n61) = 1.01 V
    V(X60.nBiStable) = 656.69 mV
    V(X60.nFeedback) = 65.669 uV
    V(X60.nINeg) = 0 V
    V(X60.nIPos) = 64.9473 mV
    V(X60.nRVFit) = 1.79977 V
    V(X60.nVCR1) = 679.131 mV
    V(X60.nVCtrl) = 1.79977 V
    V(X60.nVDec) = -65.5968 mV
    V(X60.nVTMR) = 1.8 V
    I(X60.vISample:p) = -6.29253 uA
    V(X61.n50) = -1.56445 pV
    V(X61.n51) = 1.01 V
    V(X61.n60) = 0 V
    V(X61.n61) = 1.01 V
    V(X61.nBiStable) = 656.69 mV
    V(X61.nFeedback) = 65.669 uV
    V(X61.nINeg) = 0 V
    V(X61.nIPos) = 64.9473 mV
    V(X61.nRVFit) = 1.79977 V
    V(X61.nVCR1) = 679.131 mV
    V(X61.nVCtrl) = 1.79977 V
    V(X61.nVDec) = -65.5968 mV
    V(X61.nVTMR) = 1.8 V
    I(X61.vISample:p) = -6.29253 uA
    V(X62.n50) = -1.56445 pV
    V(X62.n51) = 1.01 V
    V(X62.n60) = 0 V
    V(X62.n61) = 1.01 V
    V(X62.nBiStable) = 656.69 mV
    V(X62.nFeedback) = 65.669 uV
    V(X62.nINeg) = 0 V
    V(X62.nIPos) = 64.9473 mV
    V(X62.nRVFit) = 1.79977 V
    V(X62.nVCR1) = 679.131 mV
    V(X62.nVCtrl) = 1.79977 V
    V(X62.nVDec) = -65.5968 mV
    V(X62.nVTMR) = 1.8 V
    I(X62.vISample:p) = -6.29253 uA
    V(X63.n50) = -1.56445 pV
    V(X63.n51) = 1.01 V
    V(X63.n60) = 0 V
    V(X63.n61) = 1.01 V
    V(X63.nBiStable) = 656.69 mV
    V(X63.nFeedback) = 65.669 uV
    V(X63.nINeg) = 0 V
    V(X63.nIPos) = 64.9473 mV
    V(X63.nRVFit) = 1.79977 V
    V(X63.nVCR1) = 679.131 mV
    V(X63.nVCtrl) = 1.79977 V
    V(X63.nVDec) = -65.5968 mV
    V(X63.nVTMR) = 1.8 V
    I(X63.vISample:p) = -6.29253 uA
    V(X64.n50) = -6.99586 pV
    V(X64.n51) = 1.01 V
    V(X64.n60) = 0 V
    V(X64.n61) = 1.01 V
    V(X64.nBiStable) = 10 V
    V(X64.nFeedback) = 661.606 mV
    V(X64.nINeg) = 0 V
    V(X64.nIPos) = 269.538 mV
    V(X64.nRVFit) = 4.44954 V
    V(X64.nVCR1) = 679.131 mV
    V(X64.nVCtrl) = 4.44954 V
    V(X64.nVDec) = -272.234 mV
    V(X64.nVTMR) = 4.5 V
    I(X64.vISample:p) = -23.8653 uA
    V(X514.ENB) = 1.59997 V
    V(X515.ENB) = 1.59997 V
    V(X516.ENB) = 1.59997 V
    V(X517.ENB) = 1.59997 V
    V(X518.ENB) = 1.59997 V
    V(X519.ENB) = 1.59997 V
    V(X520.ENB) = 1.59997 V
    V(X521.ENB) = 4.15599 uV
    V(X522.ENB) = 1.59997 V
    V(X523.ENB) = 1.59997 V
    V(X524.ENB) = 1.59997 V
    V(X525.ENB) = 1.59997 V
    V(X526.ENB) = 1.59997 V
    V(X527.ENB) = 1.59997 V
    V(X528.ENB) = 1.59997 V
    V(X529.ENB) = 1.59997 V
    V(X590.ENB) = 1.59997 V
    V(X591.ENB) = 1.59997 V
    V(X592.ENB) = 4.15595 uV
    V(X593.ENB) = 1.59997 V
    V(X594.ENB) = 1.59997 V
    V(X595.ENB) = 1.59997 V
    V(X596.ENB) = 1.59997 V
    V(X599.ENB) = 1.59997 V


Most positive signals:
    V(X8.nBiStable) = 10 V
    I(X64.eMux3:bs_p1_bs_p2_flow) = 933.839 uA

Most negative signals:
    V(X25.nBiStable) = -5.59598 V
    I(X64.eBiStable:p) = -933.839 uA

Smallest signals:
    V(ENBl1) = 0 V
    I(X64.eISensBin1:bs_p1_bs_p2_flow) = 0 A


Instance: X514.M_i_2 of TG
Model: NMOS
Primitive: bsim4
          d : V(WL1T) = 800 mV
          g : V(ENWl) = 0 V
          s : V(WL1) = 690.456 mV
          b : val(0) = 0 
     region = off
   reversed = no
        ids = 1.07775e-21 A
        vgs = -690.456 mV
        vds = 109.544 mV
        vbs = -690.456 mV
        vgd = -800 mV
        vdb = 800 mV
        vgb = 0 V
        vth = 742.346 mV
      vdsat = 43.0287 mV
         gm = 31.0219e-21 S
        gds = 2.16796e-21 S
       gmbs = 8.38029e-21 S
    betaeff = 123.15 mA/V^2
        cjd = 6.2394 fF
        cjs = 10.192 fF
        cgg = 11.8183 fF
        cgd = -3.96007 fF
        cgs = -4.021 fF
        cgb = -3.8372 fF
        cdg = -3.96007 fF
        cdd = 3.96007 fF
        cds = -109.031e-33 F
        cdb = 19.1631e-33 F
        csg = -4.02086 fF
        csd = 28.4429e-33 F
        css = 4.02086 fF
        csb = -19.1631e-33 F
        cbg = -3.83734 fF
        cbd = -76.3823e-33 F
        cbs = 133.959e-21 F
        cbb = 3.8372 fF
     covlgs = 4.02086 fF/m
     covlgd = 3.96007 fF/m
     covlgb = 1.28 aF/m
      cggbo = 3.83606 fF
      cgdbo = -41.929e-33 F
      cgsbo = -133.959e-21 F
      cbgbo = -3.83606 fF
      cbdbo = -76.3823e-33 F
      cbsbo = 133.959e-21 F
      cdgbo = -0 F
      cddbo = 89.8684e-33 F
      cdsbo = -109.031e-33 F
        ron = 101.642e+18 Ohm
         id = 10 fA
      ibulk = -11.6665 fA
        pwr = 9.15064 fW
   gmoverid = 28.784 1/V
       ueff = 21.2001e-03
      rdeff = 0 Ohm
      rseff = 0 Ohm
       rgbd = 0 Ohm
      igidl = 0 A
      igisl = 0 A
       igdt = -332.687e-24 A
        igd = -0 A
        igs = -0 A
        igb = -332.675e-24 A
     igbacc = -332.675e-24 A
     igbinv = -332.594e-24 A
       igcs = -6.17864e-27 A
       igcd = -5.96088e-27 A
       isub = 196.224e-33 A
        gbs = 1 pS
        gbd = 1 pS
         qg = 2.5242 fCoul
         qd = 547.312 aCoul
         qs = 489.959 aCoul
         qb = -3.56147 fCoul
        qjd = -5.45659 fCoul
        qjs = -7.62568 fCoul
     qgdovl = -547.312 aCoul
     qgsovl = -489.959 aCoul
        qgi = 2.5242 fCoul
        qdi = 547.312 aCoul
        qsi = 489.959 aCoul
        qbi = -3.56147 fCoul
        ide = 919.544 fA
        ige = -332.687e-24 A
        ise = 582.578 fA
        ibe = -1.50212 pA
        idb = 810 fA
        isb = 692.122 fA
        vsb = 690.456 mV
        gmb = 8.38029e-21 S
        vgt = -1.4328 V
       vdss = 43.0287 mV
  vsat_marg = 66.5155 mV
  self_gain = 14.3092
       rout = 461.263e+18 Ohm
       beff = 895.84 fA/V^2
        fug = 417.767 nHz
      rgate = 40.4 Ohm
     vearly = 424.152 MV

Instance: X514.M_i_3 of TG
Model: PMOS
Primitive: bsim4
          d : V(WL1T) = 800 mV
          g : V(X514.ENB) = 1.59997 V
          s : V(WL1) = 690.456 mV
          b : V(Vdd) = 1.6 V
     region = off
   reversed = yes
        ids = -31.51e-24 A
        vgs = 799.971 mV
        vds = -109.544 mV
        vbs = 800 mV
        vgd = 909.516 mV
        vdb = -909.544 mV
        vgb = -28.5731 uV
        vth = -715.176 mV
      vdsat = -47.8467 mV
         gm = 917.107e-24 S
        gds = 77.8617e-24 S
       gmbs = 227.534e-24 S
    betaeff = 84.7047 mA/V^2
        cjd = 12.6147 fF
        cjs = 19.7938 fF
        cgg = 23.3584 fF
        cgd = -8.00195 fF
        cgs = -7.90879 fF
        cgb = -7.44764 fF
        cdg = -8.00169 fF
        cdd = 8.00169 fF
        cds = 44.6262e-33 F
        cdb = -27.5161e-33 F
        csg = -7.90879 fF
        csd = -168.502e-33 F
        css = 7.90879 fF
        csb = 27.5161e-33 F
        cbg = -7.44791 fF
        cbd = 261.999e-21 F
        cbs = -114.668e-33 F
        cbb = 7.44764 fF
     covlgs = 7.90879 fF/m
     covlgd = 8.00169 fF/m
     covlgb = 1.28 aF/m
      cggbo = 7.44663 fF
      cgdbo = -70.9437e-33 F
      cgsbo = -261.999e-21 F
      cbgbo = -7.44663 fF
      cbdbo = -114.668e-33 F
      cbsbo = 261.999e-21 F
      cdgbo = -0 F
      cddbo = 140.986e-33 F
      cdsbo = -168.502e-33 F
        ron = 3.47649e+21 Ohm
         id = -10 fA
      ibulk = 13.3693 fA
        pwr = 11.0645 fW
   gmoverid = 29.1052 1/V
       ueff = 7.29005e-03
      rdeff = 0 Ohm
      rseff = 0 Ohm
       rgbd = 0 Ohm
      igidl = -0 A
      igisl = -4.5698e-45 A
       igdt = -28.8656e-24 A
        igd = 0 A
        igs = 0 A
        igb = -28.8782e-24 A
     igbacc = -28.8782e-24 A
     igbinv = -28.8758e-24 A
       igcs = 6.19273e-27 A
       igcd = 6.41895e-27 A
       isub = 5.42262e-33 A
        gbs = 1 pS
        gbd = 1 pS
         qg = -4.91461 fCoul
         qd = -1.10689 fCoul
         qs = -1.21118 fCoul
         qb = 7.23267 fCoul
        qjd = 11.032 fCoul
        qjs = 19.8406 fCoul
     qgdovl = 1.10689 fCoul
     qgsovl = 1.21118 fCoul
        qgi = -4.91461 fCoul
        qdi = -1.10689 fCoul
        qsi = -1.21118 fCoul
        qbi = 7.23267 fCoul
        ide = -700.456 fA
        ige = -28.8656e-24 A
        ise = -1.02246 pA
        ibe = 1.72291 pA
        idb = 810 fA
        isb = 912.913 fA
        vsb = -800 mV
        gmb = 227.534e-24 S
        vgt = 1.51515 V
       vdss = -47.8467 mV
  vsat_marg = 61.6975 mV
  self_gain = 11.7787
       rout = 12.8433e+21 Ohm
       beff = 610.241 fA/V^2
        fug = 6.24881 nHz
      rgate = 81.68 Ohm
     vearly = 8.99615 GV

Instance: X514.M_i_6 of TG
Model: PMOS
Primitive: bsim4
          d : V(X514.ENB) = 1.59997 V
          g : V(ENWl) = 0 V
          s : V(Vdd) = 1.6 V
          b : V(Vdd) = 1.6 V
     region = triode
   reversed = no
        ids = -179.565 nA
        vgs = -1.6 V
        vds = -28.5731 uV
        vbs = 0 V
        vgd = -1.59997 V
        vdb = -28.5731 uV
        vgb = -1.6 V
        vth = -586.992 mV
      vdsat = -677.568 mV
         gm = 74.4903 nS
        gds = 6.28431 mS
       gmbs = 34.9693 nS
    betaeff = 8.92447 mA/V^2
        cjd = 2.31498 fF
        cjs = 3.704 fF
        cgg = 9.33579 fF
        cgd = -4.26586 fF
        cgs = -5.09487 fF
        cgb = 24.9362 aF
        cdg = -4.66255 fF
        cdd = 6.30633 fF
        cds = -1.16235 fF
        cdb = -481.436 aF
        csg = -4.66256 fF
        csd = 1.94441 fF
        css = 3.19959 fF
        csb = -481.445 aF
        cbg = -10.6799 aF
        cbd = -3.98489 fF
        cbs = 3.05762 fF
        cbb = 937.945 aF
     covlgs = 2.27853 fF/m
     covlgd = 2.27853 fF/m
     covlgb = 1.28 aF/m
      cggbo = 4.77744 fF
      cgdbo = -1.98733 fF
      cgsbo = -2.81633 fF
      cbgbo = -9.39987 aF
      cbdbo = -3.98489 fF
      cbsbo = 3.05762 fF
      cdgbo = -2.38402 fF
      cddbo = 4.0278 fF
      cdsbo = -1.16235 fF
        ron = 159.123 Ohm
         id = -178.696 nA
      ibulk = 3.19991 nA
        pwr = 5.10591 pW
   gmoverid = 414.836 m1/V
       ueff = 5.09059e-03
      rdeff = 0 Ohm
      rseff = 0 Ohm
       rgbd = 0 Ohm
      igidl = -0 A
      igisl = -0 A
       igdt = -4.9379 nA
        igd = -0 A
        igs = -0 A
        igb = -3.19991 nA
     igbacc = -3.19991 nA
     igbinv = -3.19991 nA
       igcs = -868.995 pA
       igcd = -868.995 pA
       isub = 189.291e-24 A
        gbs = 1.01969 pS
        gbd = 1.38621 pS
         qg = -9.87661 fCoul
         qd = 4.10095 fCoul
         qs = 4.10104 fCoul
         qb = 1.67462 fCoul
        qjd = 66.1325e-21 Coul
        qjs = -22.2234e-24 Coul
     qgdovl = -1.96463 fCoul
     qgsovl = -1.96466 fCoul
        qgi = -9.87661 fCoul
        qdi = 4.10095 fCoul
        qsi = 4.10104 fCoul
        qbi = 1.67462 fCoul
        ide = -178.696 nA
        ige = -4.9379 nA
        ise = 180.434 nA
        ibe = 3.19991 nA
        idb = 39.606 aA
        isb = -6.11798e-21 A
        vsb = -0 V
        gmb = 34.9693 nS
        vgt = -1.01301 V
       vdss = -677.568 mV
  vsat_marg = -677.54 mV
  self_gain = 11.8534e-06
       rout = 159.126 Ohm
       beff = 348.274 nA/V^2
        fug = 1.2699 MHz
      rgate = 12.3467 Ohm
     vearly = 28.4353 uV

Instance: X514.M_i_7 of TG
Model: NMOS
Primitive: bsim4
          d : V(X514.ENB) = 1.59997 V
          g : V(ENWl) = 0 V
          s : val(0) = 0 
          b : val(0) = 0 
     region = off
   reversed = no
        ids = 306.177 pA
        vgs = 0 V
        vds = 1.59997 V
        vbs = 0 V
        vgd = -1.59997 V
        vdb = 1.59997 V
        vgb = 0 V
        vth = 542.637 mV
      vdsat = 42.0546 mV
         gm = 8.11429 nS
        gds = 478.406 pS
       gmbs = 2.36277 nS
    betaeff = 90.1338 mA/V^2
        cjd = 3.14805 fF
        cjs = 6.904 fF
        cgg = 7.77533 fF
        cgd = -2.14627 fF
        cgs = -3.44383 fF
        cgb = -2.18523 fF
        cdg = -2.14627 fF
        cdd = 2.14627 fF
        cds = 137.012e-24 F
        cdb = -31.6387e-24 F
        csg = -3.44375 fF
        csd = -7.53476e-24 F
        css = 3.44375 fF
        csb = -47.4463e-24 F
        cbg = -2.18531 fF
        cbd = 2.19476e-24 F
        cbs = 75.9953e-21 F
        cbb = 2.18523 fF
     covlgs = 3.44375 fF/m
     covlgd = 2.14627 fF/m
     covlgb = 1.28 aF/m
      cggbo = 2.18403 fF
      cgdbo = 10.3634e-24 F
      cgsbo = -76.3377e-21 F
      cbgbo = -2.18403 fF
      cbdbo = 2.19476e-24 F
      cbsbo = 75.9953e-21 F
      cdgbo = -100.35e-24 F
      cddbo = -5.02339e-24 F
      cdsbo = 137.012e-24 F
        ron = 5.22564 GOhm
         id = 178.693 nA
      ibulk = -178.387 nA
        pwr = 285.904 nW
   gmoverid = 26.5019 1/V
       ueff = 27.2527e-03
      rdeff = 0 Ohm
      rseff = 0 Ohm
       rgbd = 0 Ohm
      igidl = 178.384 nA
      igisl = 0 A
       igdt = -5.37939e-24 A
        igd = -0 A
        igs = 0 A
        igb = -5.37939e-24 A
     igbacc = -5.37939e-24 A
     igbinv = -5.37807e-24 A
       igcs = 8.09566e-45 A
       igcd = 4.79658e-45 A
       isub = 2.97255 pA
        gbs = 1.0367 pS
        gbd = 1 pS
         qg = 1.73187 fCoul
         qd = 483.751 aCoul
         qs = -187.834 aCoul
         qb = -2.02778 fCoul
        qjd = -5.77587 fCoul
        qjs = 2.30923e-21 Coul
     qgdovl = -483.751 aCoul
     qgsovl = 187.834 aCoul
        qgi = 1.73187 fCoul
        qdi = 483.751 aCoul
        qsi = -187.834 aCoul
        qbi = -2.02778 fCoul
        ide = 178.696 nA
        ige = -5.37939e-24 A
        ise = -307.777 pA
        ibe = -178.389 nA
        idb = 1.60997 pA
        isb = -346.754e-21 A
        vsb = -0 V
        gmb = 2.36277 nS
        vgt = -542.637 mV
       vdss = 42.0546 mV
  vsat_marg = 1.55792 V
  self_gain = 16.9611
       rout = 2.09028 GOhm
       beff = 1.21375 uA/V^2
        fug = 166.093 kHz
      rgate = 23.0133 Ohm
     vearly = 373.525 V

Instance: X515.M_i_2 of TG
Model: NMOS
Primitive: bsim4
          d : V(WL2T) = 800 mV
          g : V(ENWl) = 0 V
          s : V(WL2) = 690.456 mV
          b : val(0) = 0 
     region = off
   reversed = no
        ids = 1.07775e-21 A
        vgs = -690.456 mV
        vds = 109.544 mV
        vbs = -690.456 mV
        vgd = -800 mV
        vdb = 800 mV
        vgb = 0 V
        vth = 742.346 mV
      vdsat = 43.0287 mV
         gm = 31.0219e-21 S
        gds = 2.16796e-21 S
       gmbs = 8.38029e-21 S
    betaeff = 123.15 mA/V^2
        cjd = 6.2394 fF
        cjs = 10.192 fF
        cgg = 11.8183 fF
        cgd = -3.96007 fF
        cgs = -4.021 fF
        cgb = -3.8372 fF
        cdg = -3.96007 fF
        cdd = 3.96007 fF
        cds = -109.031e-33 F
        cdb = 19.1631e-33 F
        csg = -4.02086 fF
        csd = 28.4429e-33 F
        css = 4.02086 fF
        csb = -19.1631e-33 F
        cbg = -3.83734 fF
        cbd = -76.3823e-33 F
        cbs = 133.959e-21 F
        cbb = 3.8372 fF
     covlgs = 4.02086 fF/m
     covlgd = 3.96007 fF/m
     covlgb = 1.28 aF/m
      cggbo = 3.83606 fF
      cgdbo = -41.929e-33 F
      cgsbo = -133.959e-21 F
      cbgbo = -3.83606 fF
      cbdbo = -76.3823e-33 F
      cbsbo = 133.959e-21 F
      cdgbo = -0 F
      cddbo = 89.8684e-33 F
      cdsbo = -109.031e-33 F
        ron = 101.642e+18 Ohm
         id = 10 fA
      ibulk = -11.6665 fA
        pwr = 9.15064 fW
   gmoverid = 28.784 1/V
       ueff = 21.2001e-03
      rdeff = 0 Ohm
      rseff = 0 Ohm
       rgbd = 0 Ohm
      igidl = 0 A
      igisl = 0 A
       igdt = -332.687e-24 A
        igd = -0 A
        igs = -0 A
        igb = -332.675e-24 A
     igbacc = -332.675e-24 A
     igbinv = -332.594e-24 A
       igcs = -6.17864e-27 A
       igcd = -5.96088e-27 A
       isub = 196.224e-33 A
        gbs = 1 pS
        gbd = 1 pS
         qg = 2.5242 fCoul
         qd = 547.312 aCoul
         qs = 489.959 aCoul
         qb = -3.56147 fCoul
        qjd = -5.45659 fCoul
        qjs = -7.62568 fCoul
     qgdovl = -547.312 aCoul
     qgsovl = -489.959 aCoul
        qgi = 2.5242 fCoul
        qdi = 547.312 aCoul
        qsi = 489.959 aCoul
        qbi = -3.56147 fCoul
        ide = 919.544 fA
        ige = -332.687e-24 A
        ise = 582.578 fA
        ibe = -1.50212 pA
        idb = 810 fA
        isb = 692.122 fA
        vsb = 690.456 mV
        gmb = 8.38029e-21 S
        vgt = -1.4328 V
       vdss = 43.0287 mV
  vsat_marg = 66.5155 mV
  self_gain = 14.3092
       rout = 461.263e+18 Ohm
       beff = 895.84 fA/V^2
        fug = 417.767 nHz
      rgate = 40.4 Ohm
     vearly = 424.152 MV

Instance: X515.M_i_3 of TG
Model: PMOS
Primitive: bsim4
          d : V(WL2T) = 800 mV
          g : V(X515.ENB) = 1.59997 V
          s : V(WL2) = 690.456 mV
          b : V(Vdd) = 1.6 V
     region = off
   reversed = yes
        ids = -31.51e-24 A
        vgs = 799.971 mV
        vds = -109.544 mV
        vbs = 800 mV
        vgd = 909.516 mV
        vdb = -909.544 mV
        vgb = -28.5731 uV
        vth = -715.176 mV
      vdsat = -47.8467 mV
         gm = 917.107e-24 S
        gds = 77.8617e-24 S
       gmbs = 227.534e-24 S
    betaeff = 84.7047 mA/V^2
        cjd = 12.6147 fF
        cjs = 19.7938 fF
        cgg = 23.3584 fF
        cgd = -8.00195 fF
        cgs = -7.90879 fF
        cgb = -7.44764 fF
        cdg = -8.00169 fF
        cdd = 8.00169 fF
        cds = 44.6262e-33 F
        cdb = -27.5161e-33 F
        csg = -7.90879 fF
        csd = -168.502e-33 F
        css = 7.90879 fF
        csb = 27.5161e-33 F
        cbg = -7.44791 fF
        cbd = 261.999e-21 F
        cbs = -114.668e-33 F
        cbb = 7.44764 fF
     covlgs = 7.90879 fF/m
     covlgd = 8.00169 fF/m
     covlgb = 1.28 aF/m
      cggbo = 7.44663 fF
      cgdbo = -70.9437e-33 F
      cgsbo = -261.999e-21 F
      cbgbo = -7.44663 fF
      cbdbo = -114.668e-33 F
      cbsbo = 261.999e-21 F
      cdgbo = -0 F
      cddbo = 140.986e-33 F
      cdsbo = -168.502e-33 F
        ron = 3.47649e+21 Ohm
         id = -10 fA
      ibulk = 13.3693 fA
        pwr = 11.0645 fW
   gmoverid = 29.1052 1/V
       ueff = 7.29005e-03
      rdeff = 0 Ohm
      rseff = 0 Ohm
       rgbd = 0 Ohm
      igidl = -0 A
      igisl = -4.5698e-45 A
       igdt = -28.8656e-24 A
        igd = 0 A
        igs = 0 A
        igb = -28.8782e-24 A
     igbacc = -28.8782e-24 A
     igbinv = -28.8758e-24 A
       igcs = 6.19273e-27 A
       igcd = 6.41895e-27 A
       isub = 5.42262e-33 A
        gbs = 1 pS
        gbd = 1 pS
         qg = -4.91461 fCoul
         qd = -1.10689 fCoul
         qs = -1.21118 fCoul
         qb = 7.23267 fCoul
        qjd = 11.032 fCoul
        qjs = 19.8406 fCoul
     qgdovl = 1.10689 fCoul
     qgsovl = 1.21118 fCoul
        qgi = -4.91461 fCoul
        qdi = -1.10689 fCoul
        qsi = -1.21118 fCoul
        qbi = 7.23267 fCoul
        ide = -700.456 fA
        ige = -28.8656e-24 A
        ise = -1.02246 pA
        ibe = 1.72291 pA
        idb = 810 fA
        isb = 912.913 fA
        vsb = -800 mV
        gmb = 227.534e-24 S
        vgt = 1.51515 V
       vdss = -47.8467 mV
  vsat_marg = 61.6975 mV
  self_gain = 11.7787
       rout = 12.8433e+21 Ohm
       beff = 610.241 fA/V^2
        fug = 6.24881 nHz
      rgate = 81.68 Ohm
     vearly = 8.99615 GV

Instance: X515.M_i_6 of TG
Model: PMOS
Primitive: bsim4
          d : V(X515.ENB) = 1.59997 V
          g : V(ENWl) = 0 V
          s : V(Vdd) = 1.6 V
          b : V(Vdd) = 1.6 V
     region = triode
   reversed = no
        ids = -179.565 nA
        vgs = -1.6 V
        vds = -28.5731 uV
        vbs = 0 V
        vgd = -1.59997 V
        vdb = -28.5731 uV
        vgb = -1.6 V
        vth = -586.992 mV
      vdsat = -677.568 mV
         gm = 74.4903 nS
        gds = 6.28431 mS
       gmbs = 34.9693 nS
    betaeff = 8.92447 mA/V^2
        cjd = 2.31498 fF
        cjs = 3.704 fF
        cgg = 9.33579 fF
        cgd = -4.26586 fF
        cgs = -5.09487 fF
        cgb = 24.9362 aF
        cdg = -4.66255 fF
        cdd = 6.30633 fF
        cds = -1.16235 fF
        cdb = -481.436 aF
        csg = -4.66256 fF
        csd = 1.94441 fF
        css = 3.19959 fF
        csb = -481.445 aF
        cbg = -10.6799 aF
        cbd = -3.98489 fF
        cbs = 3.05762 fF
        cbb = 937.945 aF
     covlgs = 2.27853 fF/m
     covlgd = 2.27853 fF/m
     covlgb = 1.28 aF/m
      cggbo = 4.77744 fF
      cgdbo = -1.98733 fF
      cgsbo = -2.81633 fF
      cbgbo = -9.39987 aF
      cbdbo = -3.98489 fF
      cbsbo = 3.05762 fF
      cdgbo = -2.38402 fF
      cddbo = 4.0278 fF
      cdsbo = -1.16235 fF
        ron = 159.123 Ohm
         id = -178.696 nA
      ibulk = 3.19991 nA
        pwr = 5.10591 pW
   gmoverid = 414.836 m1/V
       ueff = 5.09059e-03
      rdeff = 0 Ohm
      rseff = 0 Ohm
       rgbd = 0 Ohm
      igidl = -0 A
      igisl = -0 A
       igdt = -4.9379 nA
        igd = -0 A
        igs = -0 A
        igb = -3.19991 nA
     igbacc = -3.19991 nA
     igbinv = -3.19991 nA
       igcs = -868.995 pA
       igcd = -868.995 pA
       isub = 189.291e-24 A
        gbs = 1.01969 pS
        gbd = 1.38621 pS
         qg = -9.87661 fCoul
         qd = 4.10095 fCoul
         qs = 4.10104 fCoul
         qb = 1.67462 fCoul
        qjd = 66.1325e-21 Coul
        qjs = -22.2234e-24 Coul
     qgdovl = -1.96463 fCoul
     qgsovl = -1.96466 fCoul
        qgi = -9.87661 fCoul
        qdi = 4.10095 fCoul
        qsi = 4.10104 fCoul
        qbi = 1.67462 fCoul
        ide = -178.696 nA
        ige = -4.9379 nA
        ise = 180.434 nA
        ibe = 3.19991 nA
        idb = 39.606 aA
        isb = -6.11798e-21 A
        vsb = -0 V
        gmb = 34.9693 nS
        vgt = -1.01301 V
       vdss = -677.568 mV
  vsat_marg = -677.54 mV
  self_gain = 11.8534e-06
       rout = 159.126 Ohm
       beff = 348.274 nA/V^2
        fug = 1.2699 MHz
      rgate = 12.3467 Ohm
     vearly = 28.4353 uV

Instance: X515.M_i_7 of TG
Model: NMOS
Primitive: bsim4
          d : V(X515.ENB) = 1.59997 V
          g : V(ENWl) = 0 V
          s : val(0) = 0 
          b : val(0) = 0 
     region = off
   reversed = no
        ids = 306.177 pA
        vgs = 0 V
        vds = 1.59997 V
        vbs = 0 V
        vgd = -1.59997 V
        vdb = 1.59997 V
        vgb = 0 V
        vth = 542.637 mV
      vdsat = 42.0546 mV
         gm = 8.11429 nS
        gds = 478.406 pS
       gmbs = 2.36277 nS
    betaeff = 90.1338 mA/V^2
        cjd = 3.14805 fF
        cjs = 6.904 fF
        cgg = 7.77533 fF
        cgd = -2.14627 fF
        cgs = -3.44383 fF
        cgb = -2.18523 fF
        cdg = -2.14627 fF
        cdd = 2.14627 fF
        cds = 137.012e-24 F
        cdb = -31.6387e-24 F
        csg = -3.44375 fF
        csd = -7.53476e-24 F
        css = 3.44375 fF
        csb = -47.4463e-24 F
        cbg = -2.18531 fF
        cbd = 2.19476e-24 F
        cbs = 75.9953e-21 F
        cbb = 2.18523 fF
     covlgs = 3.44375 fF/m
     covlgd = 2.14627 fF/m
     covlgb = 1.28 aF/m
      cggbo = 2.18403 fF
      cgdbo = 10.3634e-24 F
      cgsbo = -76.3377e-21 F
      cbgbo = -2.18403 fF
      cbdbo = 2.19476e-24 F
      cbsbo = 75.9953e-21 F
      cdgbo = -100.35e-24 F
      cddbo = -5.02339e-24 F
      cdsbo = 137.012e-24 F
        ron = 5.22564 GOhm
         id = 178.693 nA
      ibulk = -178.387 nA
        pwr = 285.904 nW
   gmoverid = 26.5019 1/V
       ueff = 27.2527e-03
      rdeff = 0 Ohm
      rseff = 0 Ohm
       rgbd = 0 Ohm
      igidl = 178.384 nA
      igisl = 0 A
       igdt = -5.37939e-24 A
        igd = -0 A
        igs = 0 A
        igb = -5.37939e-24 A
     igbacc = -5.37939e-24 A
     igbinv = -5.37807e-24 A
       igcs = 8.09566e-45 A
       igcd = 4.79658e-45 A
       isub = 2.97255 pA
        gbs = 1.0367 pS
        gbd = 1 pS
         qg = 1.73187 fCoul
         qd = 483.751 aCoul
         qs = -187.834 aCoul
         qb = -2.02778 fCoul
        qjd = -5.77587 fCoul
[...]
          n : V(NM43) = 679.131 mV
          v = 0 V
          i = -6.29253 uA
        pwr = -0 W

Instance: Vtest44
Model: vsource
Primitive: vsource
          p : V(BL6) = 679.131 mV
          n : V(NM44) = 679.131 mV
          v = 0 V
          i = -6.29253 uA
        pwr = -0 W

Instance: Vtest45
Model: vsource
Primitive: vsource
          p : V(BL6) = 679.131 mV
          n : V(NM45) = 679.131 mV
          v = 0 V
          i = -6.29253 uA
        pwr = -0 W

Instance: Vtest46
Model: vsource
Primitive: vsource
          p : V(BL6) = 679.131 mV
          n : V(NM46) = 679.131 mV
          v = 0 V
          i = -6.29253 uA
        pwr = -0 W

Instance: Vtest47
Model: vsource
Primitive: vsource
          p : V(BL6) = 679.131 mV
          n : V(NM47) = 679.131 mV
          v = 0 V
          i = -6.29253 uA
        pwr = -0 W

Instance: Vtest48
Model: vsource
Primitive: vsource
          p : V(BL6) = 679.131 mV
          n : V(NM48) = 679.131 mV
          v = 0 V
          i = -23.8653 uA
        pwr = -0 W

Instance: Vtest49
Model: vsource
Primitive: vsource
          p : V(BL7) = 679.131 mV
          n : V(NM49) = 679.131 mV
          v = 0 V
          i = -6.29253 uA
        pwr = -0 W

Instance: Vtest50
Model: vsource
Primitive: vsource
          p : V(BL7) = 679.131 mV
          n : V(NM50) = 679.131 mV
          v = 0 V
          i = -6.29253 uA
        pwr = -0 W

Instance: Vtest51
Model: vsource
Primitive: vsource
          p : V(BL7) = 679.131 mV
          n : V(NM51) = 679.131 mV
          v = 0 V
          i = -6.29253 uA
        pwr = -0 W

Instance: Vtest52
Model: vsource
Primitive: vsource
          p : V(BL7) = 679.131 mV
          n : V(NM52) = 679.131 mV
          v = 0 V
          i = -6.29253 uA
        pwr = -0 W

Instance: Vtest53
Model: vsource
Primitive: vsource
          p : V(BL7) = 679.131 mV
          n : V(NM53) = 679.131 mV
          v = 0 V
          i = -6.29253 uA
        pwr = -0 W

Instance: Vtest54
Model: vsource
Primitive: vsource
          p : V(BL7) = 679.131 mV
          n : V(NM54) = 679.131 mV
          v = 0 V
          i = -6.29253 uA
        pwr = -0 W

Instance: Vtest55
Model: vsource
Primitive: vsource
          p : V(BL7) = 679.131 mV
          n : V(NM55) = 679.131 mV
          v = 0 V
          i = -6.29253 uA
        pwr = -0 W

Instance: Vtest56
Model: vsource
Primitive: vsource
          p : V(BL7) = 679.131 mV
          n : V(NM56) = 679.131 mV
          v = 0 V
          i = -23.8653 uA
        pwr = -0 W

Instance: Vtest57
Model: vsource
Primitive: vsource
          p : V(BL8) = 679.131 mV
          n : V(NM57) = 679.131 mV
          v = 0 V
          i = -6.29253 uA
        pwr = -0 W

Instance: Vtest58
Model: vsource
Primitive: vsource
          p : V(BL8) = 679.131 mV
          n : V(NM58) = 679.131 mV
          v = 0 V
          i = -6.29253 uA
        pwr = -0 W

Instance: Vtest59
Model: vsource
Primitive: vsource
          p : V(BL8) = 679.131 mV
          n : V(NM59) = 679.131 mV
          v = 0 V
          i = -6.29253 uA
        pwr = -0 W

Instance: Vtest60
Model: vsource
Primitive: vsource
          p : V(BL8) = 679.131 mV
          n : V(NM60) = 679.131 mV
          v = 0 V
          i = -6.29253 uA
        pwr = -0 W

Instance: Vtest61
Model: vsource
Primitive: vsource
          p : V(BL8) = 679.131 mV
          n : V(NM61) = 679.131 mV
          v = 0 V
          i = -6.29253 uA
        pwr = -0 W

Instance: Vtest62
Model: vsource
Primitive: vsource
          p : V(BL8) = 679.131 mV
          n : V(NM62) = 679.131 mV
          v = 0 V
          i = -6.29253 uA
        pwr = -0 W

Instance: Vtest63
Model: vsource
Primitive: vsource
          p : V(BL8) = 679.131 mV
          n : V(NM63) = 679.131 mV
          v = 0 V
          i = -6.29253 uA
        pwr = -0 W

Instance: Vtest64
Model: vsource
Primitive: vsource
          p : V(BL8) = 679.131 mV
          n : V(NM64) = 679.131 mV
          v = 0 V
          i = -23.8653 uA
        pwr = -0 W

Instance: Vvdd
Model: vsource
Primitive: vsource
          p : V(Vdd) = 1.6 V
          n : val(0) = 0 
          v = 1.6 V
          i = -4.20216 uA
        pwr = -6.72345 uW

Instance: Vwl1
Model: vsource
Primitive: vsource
          p : V(WL1T) = 800 mV
          n : val(0) = 0 
          v = 800 mV
          i = -219.088 fA
        pwr = -175.271 fW

Instance: Vwl2
Model: vsource
Primitive: vsource
          p : V(WL2T) = 800 mV
          n : val(0) = 0 
          v = 800 mV
          i = -219.088 fA
        pwr = -175.271 fW

Instance: Vwl3
Model: vsource
Primitive: vsource
          p : V(WL3T) = 800 mV
          n : val(0) = 0 
          v = 800 mV
          i = -219.088 fA
        pwr = -175.271 fW

Instance: Vwl4
Model: vsource
Primitive: vsource
          p : V(WL4T) = 800 mV
          n : val(0) = 0 
          v = 800 mV
          i = -219.088 fA
        pwr = -175.271 fW

Instance: Vwl5
Model: vsource
Primitive: vsource
          p : V(WL5T) = 800 mV
          n : val(0) = 0 
          v = 800 mV
          i = -219.088 fA
        pwr = -175.271 fW

Instance: Vwl6
Model: vsource
Primitive: vsource
          p : V(WL6T) = 800 mV
          n : val(0) = 0 
          v = 800 mV
          i = -219.088 fA
        pwr = -175.271 fW

Instance: Vwl7
Model: vsource
Primitive: vsource
          p : V(WL7T) = 800 mV
          n : val(0) = 0 
          v = 800 mV
          i = -219.088 fA
        pwr = -175.271 fW

Instance: Vwl8
Model: vsource
Primitive: vsource
          p : V(WL8T) = 800 mV
          n : val(0) = 0 
          v = 800 mV
          i = -175.987 uA
        pwr = -140.79 uW

Instance: Vwlen
Model: vsource
Primitive: vsource
          p : V(ENWl) = 0 V
          n : val(0) = 0 
          v = 0 V
          i = 74.0685 nA
        pwr = 0 W

Instance: Vwlen1
Model: vsource
Primitive: vsource
          p : V(ENWl1) = 1.6 V
          n : val(0) = 0 
          v = 1.6 V
          i = -25.1578 nA
        pwr = -40.2524 nW

Instance: X1.vISample of MTJT
Model: vsource
Primitive: vsource
          p : V(NM1) = 679.131 mV
          n : V(X1.nVCR1) = 679.131 mV
          v = 0 V
          i = -6.29253 uA
        pwr = -0 W

Instance: X2.vISample of MTJT
Model: vsource
Primitive: vsource
          p : V(NM2) = 679.131 mV
          n : V(X2.nVCR1) = 679.131 mV
          v = 0 V
          i = -6.29253 uA
        pwr = -0 W

Instance: X3.vISample of MTJT
Model: vsource
Primitive: vsource
          p : V(NM3) = 679.131 mV
          n : V(X3.nVCR1) = 679.131 mV
          v = 0 V
          i = -6.29253 uA
        pwr = -0 W

Instance: X4.vISample of MTJT
Model: vsource
Primitive: vsource
          p : V(NM4) = 679.131 mV
          n : V(X4.nVCR1) = 679.131 mV
          v = 0 V
          i = -6.29253 uA
        pwr = -0 W

Instance: X5.vISample of MTJT
Model: vsource
Primitive: vsource
          p : V(NM5) = 679.131 mV
          n : V(X5.nVCR1) = 679.131 mV
          v = 0 V
          i = -6.29253 uA
        pwr = -0 W

Instance: X6.vISample of MTJT
Model: vsource
Primitive: vsource
          p : V(NM6) = 679.131 mV
          n : V(X6.nVCR1) = 679.131 mV
          v = 0 V
          i = -6.29253 uA
        pwr = -0 W

Instance: X7.vISample of MTJT
Model: vsource
Primitive: vsource
          p : V(NM7) = 679.131 mV
          n : V(X7.nVCR1) = 679.131 mV
          v = 0 V
          i = -6.29253 uA
        pwr = -0 W

Instance: X8.vISample of MTJT
Model: vsource
Primitive: vsource
          p : V(NM8) = 679.131 mV
          n : V(X8.nVCR1) = 679.131 mV
          v = 0 V
          i = -23.8653 uA
        pwr = -0 W

Instance: X9.vISample of MTJT
Model: vsource
Primitive: vsource
          p : V(NM9) = 679.131 mV
          n : V(X9.nVCR1) = 679.131 mV
          v = 0 V
          i = -6.29253 uA
        pwr = -0 W

Instance: X10.vISample of MTJT
Model: vsource
Primitive: vsource
          p : V(NM10) = 679.131 mV
          n : V(X10.nVCR1) = 679.131 mV
          v = 0 V
          i = -6.29253 uA
        pwr = -0 W

Instance: X11.vISample of MTJT
Model: vsource
Primitive: vsource
          p : V(NM11) = 679.131 mV
          n : V(X11.nVCR1) = 679.131 mV
          v = 0 V
          i = -6.29253 uA
        pwr = -0 W

Instance: X12.vISample of MTJT
Model: vsource
Primitive: vsource
          p : V(NM12) = 679.131 mV
          n : V(X12.nVCR1) = 679.131 mV
          v = 0 V
          i = -6.29253 uA
        pwr = -0 W

Instance: X13.vISample of MTJT
Model: vsource
Primitive: vsource
          p : V(NM13) = 679.131 mV
          n : V(X13.nVCR1) = 679.131 mV
          v = 0 V
          i = -6.29253 uA
        pwr = -0 W

Instance: X14.vISample of MTJT
Model: vsource
Primitive: vsource
          p : V(NM14) = 679.131 mV
          n : V(X14.nVCR1) = 679.131 mV
          v = 0 V
          i = -6.29253 uA
        pwr = -0 W

Instance: X15.vISample of MTJT
Model: vsource
Primitive: vsource
          p : V(NM15) = 679.131 mV
          n : V(X15.nVCR1) = 679.131 mV
          v = 0 V
          i = -6.29253 uA
        pwr = -0 W

Instance: X16.vISample of MTJT
Model: vsource
Primitive: vsource
          p : V(NM16) = 679.131 mV
          n : V(X16.nVCR1) = 679.131 mV
          v = 0 V
          i = -23.8653 uA
        pwr = -0 W

Instance: X17.vISample of MTJT
Model: vsource
Primitive: vsource
          p : V(NM17) = 679.131 mV
          n : V(X17.nVCR1) = 679.131 mV
          v = 0 V
          i = -6.29253 uA
        pwr = -0 W

Instance: X18.vISample of MTJT
Model: vsource
Primitive: vsource
          p : V(NM18) = 679.131 mV
          n : V(X18.nVCR1) = 679.131 mV
          v = 0 V
          i = -6.29253 uA
        pwr = -0 W

Instance: X19.vISample of MTJT
Model: vsource
Primitive: vsource
          p : V(NM19) = 679.131 mV
          n : V(X19.nVCR1) = 679.131 mV
          v = 0 V
          i = -6.29253 uA
        pwr = -0 W

Instance: X20.vISample of MTJT
Model: vsource
Primitive: vsource
          p : V(NM20) = 679.131 mV
          n : V(X20.nVCR1) = 679.131 mV
          v = 0 V
          i = -6.29253 uA
        pwr = -0 W

Instance: X21.vISample of MTJT
Model: vsource
Primitive: vsource
          p : V(NM21) = 679.131 mV
          n : V(X21.nVCR1) = 679.131 mV
          v = 0 V
          i = -6.29253 uA
        pwr = -0 W

Instance: X22.vISample of MTJT
Model: vsource
Primitive: vsource
          p : V(NM22) = 679.131 mV
          n : V(X22.nVCR1) = 679.131 mV
          v = 0 V
          i = -6.29253 uA
        pwr = -0 W

Instance: X23.vISample of MTJT
Model: vsource
Primitive: vsource
          p : V(NM23) = 679.131 mV
          n : V(X23.nVCR1) = 679.131 mV
          v = 0 V
          i = -6.29253 uA
        pwr = -0 W

Instance: X24.vISample of MTJT
Model: vsource
Primitive: vsource
          p : V(NM24) = 679.131 mV
          n : V(X24.nVCR1) = 679.131 mV
          v = 0 V
          i = -23.8653 uA
        pwr = -0 W

Instance: X25.vISample of MTJT
Model: vsource
Primitive: vsource
          p : V(NM25) = 769.251 mV
          n : V(X25.nVCR1) = 769.251 mV
          v = 0 V
          i = 44.0477 uA
        pwr = 0 W

Instance: X26.vISample of MTJT
Model: vsource
Primitive: vsource
          p : V(NM26) = 769.251 mV
          n : V(X26.nVCR1) = 769.251 mV
          v = 0 V
          i = 44.0477 uA
        pwr = 0 W

Instance: X27.vISample of MTJT
Model: vsource
Primitive: vsource
          p : V(NM27) = 769.251 mV
          n : V(X27.nVCR1) = 769.251 mV
          v = 0 V
          i = 44.0477 uA
        pwr = 0 W

Instance: X28.vISample of MTJT
Model: vsource
Primitive: vsource
          p : V(NM28) = 769.251 mV
          n : V(X28.nVCR1) = 769.251 mV
          v = 0 V
          i = 44.0477 uA
        pwr = 0 W

Instance: X29.vISample of MTJT
Model: vsource
Primitive: vsource
          p : V(NM29) = 769.251 mV
          n : V(X29.nVCR1) = 769.251 mV
          v = 0 V
          i = 44.0477 uA
        pwr = 0 W

Instance: X30.vISample of MTJT
Model: vsource
Primitive: vsource
          p : V(NM30) = 769.251 mV
          n : V(X30.nVCR1) = 769.251 mV
          v = 0 V
          i = 44.0477 uA
        pwr = 0 W

Instance: X31.vISample of MTJT
Model: vsource
Primitive: vsource
          p : V(NM31) = 769.251 mV
          n : V(X31.nVCR1) = 769.251 mV
          v = 0 V
          i = 44.0477 uA
        pwr = 0 W

Instance: X32.vISample of MTJT
Model: vsource
Primitive: vsource
          p : V(NM32) = 769.251 mV
          n : V(X32.nVCR1) = 769.251 mV
          v = 0 V
          i = -8.92984 uA
        pwr = -0 W

Instance: X33.vISample of MTJT
Model: vsource
Primitive: vsource
          p : V(NM33) = 679.131 mV
          n : V(X33.nVCR1) = 679.131 mV
          v = 0 V
          i = -6.29253 uA
        pwr = -0 W

Instance: X34.vISample of MTJT
Model: vsource
Primitive: vsource
          p : V(NM34) = 679.131 mV
          n : V(X34.nVCR1) = 679.131 mV
          v = 0 V
          i = -6.29253 uA
        pwr = -0 W

Instance: X35.vISample of MTJT
Model: vsource
Primitive: vsource
          p : V(NM35) = 679.131 mV
          n : V(X35.nVCR1) = 679.131 mV
          v = 0 V
          i = -6.29253 uA
        pwr = -0 W

Instance: X36.vISample of MTJT
Model: vsource
Primitive: vsource
          p : V(NM36) = 679.131 mV
          n : V(X36.nVCR1) = 679.131 mV
          v = 0 V
          i = -6.29253 uA
        pwr = -0 W

Instance: X37.vISample of MTJT
Model: vsource
Primitive: vsource
          p : V(NM37) = 679.131 mV
          n : V(X37.nVCR1) = 679.131 mV
          v = 0 V
          i = -6.29253 uA
        pwr = -0 W

Instance: X38.vISample of MTJT
Model: vsource
Primitive: vsource
          p : V(NM38) = 679.131 mV
          n : V(X38.nVCR1) = 679.131 mV
          v = 0 V
          i = -6.29253 uA
        pwr = -0 W

Instance: X39.vISample of MTJT
Model: vsource
Primitive: vsource
          p : V(NM39) = 679.131 mV
          n : V(X39.nVCR1) = 679.131 mV
          v = 0 V
          i = -6.29253 uA
        pwr = -0 W

Instance: X40.vISample of MTJT
Model: vsource
Primitive: vsource
          p : V(NM40) = 679.131 mV
          n : V(X40.nVCR1) = 679.131 mV
          v = 0 V
          i = -23.8653 uA
        pwr = -0 W

Instance: X41.vISample of MTJT
Model: vsource
Primitive: vsource
          p : V(NM41) = 679.131 mV
          n : V(X41.nVCR1) = 679.131 mV
          v = 0 V
          i = -6.29253 uA
        pwr = -0 W

Instance: X42.vISample of MTJT
Model: vsource
Primitive: vsource
          p : V(NM42) = 679.131 mV
          n : V(X42.nVCR1) = 679.131 mV
          v = 0 V
          i = -6.29253 uA
        pwr = -0 W

Instance: X43.vISample of MTJT
Model: vsource
Primitive: vsource
          p : V(NM43) = 679.131 mV
          n : V(X43.nVCR1) = 679.131 mV
          v = 0 V
          i = -6.29253 uA
        pwr = -0 W

Instance: X44.vISample of MTJT
Model: vsource
Primitive: vsource
          p : V(NM44) = 679.131 mV
          n : V(X44.nVCR1) = 679.131 mV
          v = 0 V
          i = -6.29253 uA
        pwr = -0 W

Instance: X45.vISample of MTJT
Model: vsource
Primitive: vsource
          p : V(NM45) = 679.131 mV
          n : V(X45.nVCR1) = 679.131 mV
          v = 0 V
          i = -6.29253 uA
        pwr = -0 W

Instance: X46.vISample of MTJT
Model: vsource
Primitive: vsource
          p : V(NM46) = 679.131 mV
          n : V(X46.nVCR1) = 679.131 mV
          v = 0 V
          i = -6.29253 uA
        pwr = -0 W

Instance: X47.vISample of MTJT
Model: vsource
Primitive: vsource
          p : V(NM47) = 679.131 mV
          n : V(X47.nVCR1) = 679.131 mV
          v = 0 V
          i = -6.29253 uA
        pwr = -0 W

Instance: X48.vISample of MTJT
Model: vsource
Primitive: vsource
          p : V(NM48) = 679.131 mV
          n : V(X48.nVCR1) = 679.131 mV
          v = 0 V
          i = -23.8653 uA
        pwr = -0 W

Instance: X49.vISample of MTJT
Model: vsource
Primitive: vsource
          p : V(NM49) = 679.131 mV
          n : V(X49.nVCR1) = 679.131 mV
          v = 0 V
          i = -6.29253 uA
        pwr = -0 W

Instance: X50.vISample of MTJT
Model: vsource
Primitive: vsource
          p : V(NM50) = 679.131 mV
          n : V(X50.nVCR1) = 679.131 mV
          v = 0 V
          i = -6.29253 uA
        pwr = -0 W

Instance: X51.vISample of MTJT
Model: vsource
Primitive: vsource
          p : V(NM51) = 679.131 mV
          n : V(X51.nVCR1) = 679.131 mV
          v = 0 V
          i = -6.29253 uA
        pwr = -0 W

Instance: X52.vISample of MTJT
Model: vsource
Primitive: vsource
          p : V(NM52) = 679.131 mV
          n : V(X52.nVCR1) = 679.131 mV
          v = 0 V
          i = -6.29253 uA
        pwr = -0 W

Instance: X53.vISample of MTJT
Model: vsource
Primitive: vsource
          p : V(NM53) = 679.131 mV
          n : V(X53.nVCR1) = 679.131 mV
          v = 0 V
          i = -6.29253 uA
        pwr = -0 W

Instance: X54.vISample of MTJT
Model: vsource
Primitive: vsource
          p : V(NM54) = 679.131 mV
          n : V(X54.nVCR1) = 679.131 mV
          v = 0 V
          i = -6.29253 uA
        pwr = -0 W

Instance: X55.vISample of MTJT
Model: vsource
Primitive: vsource
          p : V(NM55) = 679.131 mV
          n : V(X55.nVCR1) = 679.131 mV
          v = 0 V
          i = -6.29253 uA
        pwr = -0 W

Instance: X56.vISample of MTJT
Model: vsource
Primitive: vsource
          p : V(NM56) = 679.131 mV
          n : V(X56.nVCR1) = 679.131 mV
          v = 0 V
          i = -23.8653 uA
        pwr = -0 W

Instance: X57.vISample of MTJT
Model: vsource
Primitive: vsource
          p : V(NM57) = 679.131 mV
          n : V(X57.nVCR1) = 679.131 mV
          v = 0 V
          i = -6.29253 uA
        pwr = -0 W

Instance: X58.vISample of MTJT
Model: vsource
Primitive: vsource
          p : V(NM58) = 679.131 mV
          n : V(X58.nVCR1) = 679.131 mV
          v = 0 V
          i = -6.29253 uA
        pwr = -0 W

Instance: X59.vISample of MTJT
Model: vsource
Primitive: vsource
          p : V(NM59) = 679.131 mV
          n : V(X59.nVCR1) = 679.131 mV
          v = 0 V
          i = -6.29253 uA
        pwr = -0 W

Instance: X60.vISample of MTJT
Model: vsource
Primitive: vsource
          p : V(NM60) = 679.131 mV
          n : V(X60.nVCR1) = 679.131 mV
          v = 0 V
          i = -6.29253 uA
        pwr = -0 W

Instance: X61.vISample of MTJT
Model: vsource
Primitive: vsource
          p : V(NM61) = 679.131 mV
          n : V(X61.nVCR1) = 679.131 mV
          v = 0 V
          i = -6.29253 uA
        pwr = -0 W

Instance: X62.vISample of MTJT
Model: vsource
Primitive: vsource
          p : V(NM62) = 679.131 mV
          n : V(X62.nVCR1) = 679.131 mV
          v = 0 V
          i = -6.29253 uA
        pwr = -0 W

Instance: X63.vISample of MTJT
Model: vsource
Primitive: vsource
          p : V(NM63) = 679.131 mV
          n : V(X63.nVCR1) = 679.131 mV
          v = 0 V
          i = -6.29253 uA
        pwr = -0 W

Instance: X64.vISample of MTJT
Model: vsource
Primitive: vsource
          p : V(NM64) = 679.131 mV
          n : V(X64.nVCR1) = 679.131 mV
          v = 0 V
          i = -23.8653 uA
        pwr = -0 W

Maximum and minimum parameter values for vsource: 
            max v = 1.6 V on Vbl4en
            min v = 0 V on Vbl1en
            max i = 44.0477 uA on Vtest25
            min i = -376.329 uA on Vbl4
          min |i| = -219.088 fA on Vwl3
          max pwr = 0 W on Vbl1en
          min pwr = -301.063 uW on Vbl4


Total Power Dissipation = 448.657 uW.


Convergence achieved in 18 iterations.
DC simulation time: CPU = 229.86 ms, elapsed = 247.137 ms.
Total time required for dc analysis `LeakStat': CPU = 230.019 ms, elapsed = 247.298 ms.
Time accumulated: CPU = 8.87177 s, elapsed = 9.31717 s.
Peak resident memory used = 88.5 Mbytes.


Aggregate audit (8:34:56 AM, Mon Mar 29, 2021):
Time used: CPU = 8.88 s, elapsed = 9.37 s, util. = 94.7%.
Time spent in licensing: elapsed = 22.7 ms.
Peak memory used = 88.8 Mbytes.
Simulation started at: 8:34:47 AM, Mon Mar 29, 2021, ended at: 8:34:56 AM, Mon Mar 29, 2021, with elapsed time (wall clock): 9.37 s.
spectre completes with 0 errors, 3 warnings, and 51 notices.
