
Spectre (R) Circuit Simulator
Version 16.1.0.673.isr14 64bit -- 30 Mar 2018
Copyright (C) 1989-2018 Cadence Design Systems, Inc. All rights reserved worldwide. Cadence and Spectre are registered trademarks of Cadence Design Systems, Inc. All others are the property of their respective holders.

Includes RSA BSAFE(R) Cryptographic or Security Protocol Software from RSA Security, Inc.

User: brunozimmer   Host: itacolomi.lapsi   HostID: 7F0100   PID: 27806
Memory  available: 15.8306 GB  physical: 33.7036 GB
Linux   : CentOS Linux release 7.9.2009 (Core)
CPU Type: Intel(R) Xeon(R) CPU E3-1220 V2 @ 3.10GHz
All processors running at 3333.7 MHz
        Socket: Processors
        0:       0,  1,  2,  3
        
System load averages (1min, 5min, 15min) : 34.0 %, 14.5 %, 6.2 %


Simulating `Cell.scs' on itacolomi.lapsi at 9:03:08 PM, Mon Mar 22, 2021 (process id: 27806).
Current working directory: /home/brunozimmer/Documentos/ComparacaoMemorias/1T1MTJ/128
Command line:
    /tools/cadence/SPECTRE161/tools.lnx86/bin/spectre -64 =mdl  \
        Results.mdl Cell.scs

Loading /tools/cadence/SPECTRE161/tools.lnx86/cmi/lib/64bit/5.0/libinfineon_sh.so ...
Loading /tools/cadence/SPECTRE161/tools.lnx86/cmi/lib/64bit/5.0/libphilips_o_sh.so ...
Loading /tools/cadence/SPECTRE161/tools.lnx86/cmi/lib/64bit/5.0/libphilips_sh.so ...
Loading /tools/cadence/SPECTRE161/tools.lnx86/cmi/lib/64bit/5.0/libsparam_sh.so ...
Loading /tools/cadence/SPECTRE161/tools.lnx86/cmi/lib/64bit/5.0/libstmodels_sh.so ...
Loading /tools/cadence/SPECTRE161/tools.lnx86/spectre/lib/64bit/mdl/libSpectreEH_sh.so ...

Warning from spectre.
    WARNING (MDL-1452): line 1, column 1: syntax error before or at: *
            unrecognised statement.

Reading file:  /home/brunozimmer/Documentos/ComparacaoMemorias/1T1MTJ/128/Cell.scs
Reading file:  /tools/cadence/SPECTRE161/tools.lnx86/spectre/etc/configs/mapsubckt.cfg
Reading file:  /tools/cadence/SPECTRE161/tools.lnx86/spectre/etc/configs/spectre.cfg
Reading file:  /home/brunozimmer/Documentos/ComparacaoMemorias/1T1MTJ/128/45nm_LP.pm
Reading file:  /home/brunozimmer/Documentos/ComparacaoMemorias/1T1MTJ/128/TRANSGATE.spi
Reading file:  /home/brunozimmer/Documentos/ComparacaoMemorias/1T1MTJ/128/1T1MBitCell.spi
Reading file:  /home/brunozimmer/Documentos/ComparacaoMemorias/1T1MTJ/128/MTJT.spi
Time for NDB Parsing: CPU = 224.982 ms, elapsed = 236.003 ms.
Time accumulated: CPU = 245.455 ms, elapsed = 236.011 ms.
Peak resident memory used = 66.1 Mbytes.

Reading link:  /tools/cadence/SPECTRE161/tools.lnx86/spectre/etc/ahdl/discipline.h
Reading file:  /tools/cadence/SPECTRE161/tools.lnx86/spectre/etc/ahdl/disciplines.vams
Reading link:  /tools/cadence/SPECTRE161/tools.lnx86/spectre/etc/ahdl/constants.h
Reading file:  /tools/cadence/SPECTRE161/tools.lnx86/spectre/etc/ahdl/constants.vams
Existing shared object for module bsource_299dda is up to date.
Installed compiled interface for bsource_299dda.
Existing shared object for module bsource_c88c6a is up to date.
Installed compiled interface for bsource_c88c6a.
Existing shared object for module bsource_42ea24 is up to date.
Installed compiled interface for bsource_42ea24.
Existing shared object for module bsource_7b7e87 is up to date.
Installed compiled interface for bsource_7b7e87.
Existing shared object for module bsource_098211 is up to date.
Installed compiled interface for bsource_098211.
Existing shared object for module bsource_ad0f4a is up to date.
Installed compiled interface for bsource_ad0f4a.
Time for Elaboration: CPU = 50.491 ms, elapsed = 50.6649 ms.
Time accumulated: CPU = 296.163 ms, elapsed = 286.921 ms.
Peak resident memory used = 76.7 Mbytes.


Time for EDB Visiting: CPU = 52.574 ms, elapsed = 52.583 ms.
Time accumulated: CPU = 348.936 ms, elapsed = 339.724 ms.
Peak resident memory used = 80.7 Mbytes.


Notice from spectre during topology check.
    Only one connection to the following 9 nodes:
        ENBl1
        ENBl2
        ENBl3
        ENBl4
        ENBl5
        Further occurrences of this notice will be suppressed.


Global user options:
             rawfmt = psfbin

Scoped user options:

Circuit inventory:
              nodes 1961
              bsim4 128   
     bsource_7b7e87 128   
     bsource_42ea24 128   
     bsource_299dda 128   
     bsource_098211 128   
     bsource_ad0f4a 128   
     bsource_c88c6a 128   
          capacitor 776   
           resistor 896   
               vccs 128   
               vcvs 512   
            vsource 297   

Analysis and control statement inventory:
               tran 1     

Output statements:
             .probe 0     
           .measure 0     
               save 0     


Notice from spectre.
    1 notice suppressed.

Time for parsing: CPU = 24.049 ms, elapsed = 58.3479 ms.
Time accumulated: CPU = 373.144 ms, elapsed = 398.249 ms.
Peak resident memory used = 84.6 Mbytes.

~~~~~~~~~~~~~~~~~~~~~~
Pre-Simulation Summary
~~~~~~~~~~~~~~~~~~~~~~
~~~~~~~~~~~~~~~~~~~~~~

++++++++++++++++
TpRead = (0.05n)
++++++++++++++++

***************************************************************
Transient Analysis `TmpRead-000_TmpRead': time = (0 s -> 10 ns)
***************************************************************
DC simulation time: CPU = 63.018 ms, elapsed = 63.0522 ms.

Notice from spectre during transient analysis `TmpRead-000_TmpRead', during task `MDLControl'.
    No outputs were found. Loosening output filter criterion to `allpub'.


Opening the PSF file Cell.raw/TmpRead-000_TmpRead.tran.tran ...
Important parameter values:
    start = 0 s
    outputstart = 0 s
    stop = 10 ns
    step = 10 ps
    maxstep = 200 ps
    ic = all
    useprevic = no
    skipdc = no
    reltol = 1e-03
    abstol(V) = 1 uV
    abstol(I) = 1 pA
    temp = 27 C
    tnom = 27 C
    tempeffects = all
    errpreset = moderate
    method = traponly
    lteratio = 3.5
    relref = sigglobal
    cmin = 0 F
    gmin = 1 pS


Output and IC/nodeset summary:
                 save   297     (current)
                 save   1961    (voltage)

Zero diagonal found in Jacobian at `X20.X1.eISensBin2:bs_p1_bs_p2_flow' and `X20.X1.vISample:p'.
Zero diagonal found in Jacobian at `X20.X1.eISensBin2:bs_p1_bs_p2_flow' and `X20.X1.vISample:p'.
Zero diagonal found in Jacobian at `X18.X1.eISensBin2:bs_p1_bs_p2_flow' and `X18.X1.vISample:p'.
Zero diagonal found in Jacobian at `X18.X1.eISensBin2:bs_p1_bs_p2_flow' and `X18.X1.vISample:p'.
.

Notice from spectre at time = 73.8765 ps during transient analysis `TmpRead-000_TmpRead', during task `MDLControl'.
    Found trapezoidal ringing on node X49.M_i_1:int_b.
Notice from spectre at time = 75.9262 ps during transient analysis `TmpRead-000_TmpRead', during task `MDLControl'.
    Found trapezoidal ringing on node X49.M_i_1:int_b.
Notice from spectre at time = 76.9511 ps during transient analysis `TmpRead-000_TmpRead', during task `MDLControl'.
    Found trapezoidal ringing on node X49.M_i_1:int_b.
Notice from spectre at time = 79.0009 ps during transient analysis `TmpRead-000_TmpRead', during task `MDLControl'.
    Found trapezoidal ringing on node X49.M_i_1:int_b.
Notice from spectre at time = 80.0258 ps during transient analysis `TmpRead-000_TmpRead', during task `MDLControl'.
    Found trapezoidal ringing on node X49.M_i_1:int_b.
        Further occurrences of this notice will be suppressed.

........9........8........7........6........5........4........3........2........1........0
Number of accepted tran steps =             737

Notice from spectre during transient analysis `TmpRead-000_TmpRead', during task `MDLControl'.
    Trapezoidal ringing is detected during tran analysis.
        Please use method=trap for better results and performance.


Maximum value achieved for any signal of each quantity: 
V: V(X56.X1.nBiStable) = 10.01 V
I: I(X56.X1.eBiStable:p) = 19.93 A
If your circuit contains signals of the same quantity that are vastly different in size (such as high voltage circuitry combined with low voltage control circuitry), you should consider specifying global option `bin_relref=yes'.

~~~~~~~~~~~~~~~~~~~~~~~~~~~~~~~~~
Post-Transient Simulation Summary
~~~~~~~~~~~~~~~~~~~~~~~~~~~~~~~~~
   -   To further speed up simulation, consider
          add ++aps on command line
~~~~~~~~~~~~~~~~~~~~~~~~~~~~~~~~~


During simulation, the CPU load for active processors is :
        Spectre  0 (86.4 %)      1 (39.9 %)      2 (100.0 %)     3 (91.2 %)
        Other   
Initial condition solution time: CPU = 63.146 ms, elapsed = 63.205 ms.
Intrinsic tran analysis time:    CPU = 4.35187 s, elapsed = 4.39044 s.
Total time required for tran analysis `TmpRead-000_TmpRead': CPU = 4.43059 s, elapsed = 4.46949 s.
Time accumulated: CPU = 4.85102 s, elapsed = 4.94447 s.
Peak resident memory used = 95.5 Mbytes.


Notice from spectre during task `MDLControl'.
    154 notices suppressed.


Value of Exported Variables in this iteration of the Search loop ( iteration = 1 ) :
CurBL=0.000289447
TpRd=2.5e-10

+++++++++++++++++++
TpRead = (0.29999n)
+++++++++++++++++++

***************************************************************
Transient Analysis `TmpRead-000_TmpRead': time = (0 s -> 10 ns)
***************************************************************
DC simulation time: CPU = 72.016 ms, elapsed = 72.1061 ms.

Notice from spectre during transient analysis `TmpRead-000_TmpRead', during task `MDLControl'.
    No outputs were found. Loosening output filter criterion to `allpub'.


Opening the PSF file Cell.raw/TmpRead-000_TmpRead.tran.tran ...
Important parameter values:
    start = 0 s
    outputstart = 0 s
    stop = 10 ns
    step = 10 ps
    maxstep = 200 ps
    ic = all
    useprevic = no
    skipdc = no
    reltol = 1e-03
    abstol(V) = 1 uV
    abstol(I) = 1 pA
    temp = 27 C
    tnom = 27 C
    tempeffects = all
    errpreset = moderate
    method = traponly
    lteratio = 3.5
    relref = sigglobal
    cmin = 0 F
    gmin = 1 pS


Output and IC/nodeset summary:
                 save   297     (current)
                 save   1961    (voltage)

...
Zero diagonal found in Jacobian at `X126.X1.eISensBin2:bs_p1_bs_p2_flow' and `X126.X1.vISample:p'.
Zero diagonal found in Jacobian at `X126.X1.eISensBin2:bs_p1_bs_p2_flow' and `X126.X1.vISample:p'.
Zero diagonal found in Jacobian at `X126.X1.eISensBin2:bs_p1_bs_p2_flow' and `X126.X1.vISample:p'.
Zero diagonal found in Jacobian at `X126.X1.eISensBin2:bs_p1_bs_p2_flow' and `X126.X1.vISample:p'.
Zero diagonal found in Jacobian at `X102.X1.eISensBin2:bs_p1_bs_p2_flow' and `X102.X1.vISample:p'.
Zero diagonal found in Jacobian at `X102.X1.eISensBin2:bs_p1_bs_p2_flow' and `X102.X1.vISample:p'.
Zero diagonal found in Jacobian at `X102.X1.eISensBin2:bs_p1_bs_p2_flow' and `X102.X1.vISample:p'.

Notice from spectre at time = 323.866 ps during transient analysis `TmpRead-000_TmpRead', during task `MDLControl'.
    Found trapezoidal ringing on node X49.M_i_1:int_b.
Notice from spectre at time = 325.916 ps during transient analysis `TmpRead-000_TmpRead', during task `MDLControl'.
    Found trapezoidal ringing on node X49.M_i_1:int_b.
Notice from spectre at time = 326.941 ps during transient analysis `TmpRead-000_TmpRead', during task `MDLControl'.
    Found trapezoidal ringing on node X49.M_i_1:int_b.
Notice from spectre at time = 328.991 ps during transient analysis `TmpRead-000_TmpRead', during task `MDLControl'.
    Found trapezoidal ringing on node X49.M_i_1:int_b.
Notice from spectre at time = 330.016 ps during transient analysis `TmpRead-000_TmpRead', during task `MDLControl'.
    Found trapezoidal ringing on node X49.M_i_1:int_b.
        Further occurrences of this notice will be suppressed.

........9........8........7........6........5........4........3........2........1........0
Number of accepted tran steps =             726

Notice from spectre during transient analysis `TmpRead-000_TmpRead', during task `MDLControl'.
    Trapezoidal ringing is detected during tran analysis.
        Please use method=trap for better results and performance.


Maximum value achieved for any signal of each quantity: 
V: V(X128.X1.nBiStable) = 10 V
I: I(X56.X1.eBiStable:p) = 19.73 A
If your circuit contains signals of the same quantity that are vastly different in size (such as high voltage circuitry combined with low voltage control circuitry), you should consider specifying global option `bin_relref=yes'.

~~~~~~~~~~~~~~~~~~~~~~~~~~~~~~~~~
Post-Transient Simulation Summary
~~~~~~~~~~~~~~~~~~~~~~~~~~~~~~~~~
   -   To further speed up simulation, consider
          add ++aps on command line
~~~~~~~~~~~~~~~~~~~~~~~~~~~~~~~~~


During simulation, the CPU load for active processors is :
        Spectre  0 (92.2 %)      1 (50.5 %)      2 (82.7 %)      3 (92.1 %)
        Other   
Initial condition solution time: CPU = 72.115 ms, elapsed = 72.2179 ms.
Intrinsic tran analysis time:    CPU = 4.12661 s, elapsed = 4.14956 s.
Total time required for tran analysis `TmpRead-000_TmpRead': CPU = 4.21259 s, elapsed = 4.2358 s.
Time accumulated: CPU = 9.10789 s, elapsed = 9.22469 s.
Peak resident memory used = 97.6 Mbytes.


Notice from spectre during task `MDLControl'.
    147 notices suppressed.


Value of Exported Variables in this iteration of the Search loop ( iteration = 2 ) :
CurBL=5.84891e-05
TpRd=1e-14

++++++++++++++++++++
TpRead = 1.74995e-10
++++++++++++++++++++

***************************************************************
Transient Analysis `TmpRead-000_TmpRead': time = (0 s -> 10 ns)
***************************************************************
DC simulation time: CPU = 111.439 ms, elapsed = 111.461 ms.

Notice from spectre during transient analysis `TmpRead-000_TmpRead', during task `MDLControl'.
    No outputs were found. Loosening output filter criterion to `allpub'.


Opening the PSF file Cell.raw/TmpRead-000_TmpRead.tran.tran ...
Important parameter values:
    start = 0 s
    outputstart = 0 s
    stop = 10 ns
    step = 10 ps
    maxstep = 200 ps
    ic = all
    useprevic = no
    skipdc = no
    reltol = 1e-03
    abstol(V) = 1 uV
    abstol(I) = 1 pA
    temp = 27 C
    tnom = 27 C
    tempeffects = all
    errpreset = moderate
    method = traponly
    lteratio = 3.5
    relref = sigglobal
    cmin = 0 F
    gmin = 1 pS


Output and IC/nodeset summary:
                 save   297     (current)
                 save   1961    (voltage)

..

Notice from spectre at time = 198.876 ps during transient analysis `TmpRead-000_TmpRead', during task `MDLControl'.
    Found trapezoidal ringing on node X53.M_i_1:int_b.
Notice from spectre at time = 200.926 ps during transient analysis `TmpRead-000_TmpRead', during task `MDLControl'.
    Found trapezoidal ringing on node X53.M_i_1:int_b.
Notice from spectre at time = 201.951 ps during transient analysis `TmpRead-000_TmpRead', during task `MDLControl'.
    Found trapezoidal ringing on node X53.M_i_1:int_b.
Notice from spectre at time = 204.001 ps during transient analysis `TmpRead-000_TmpRead', during task `MDLControl'.
    Found trapezoidal ringing on node X53.M_i_1:int_b.
Notice from spectre at time = 205.026 ps during transient analysis `TmpRead-000_TmpRead', during task `MDLControl'.
    Found trapezoidal ringing on node X53.M_i_1:int_b.
        Further occurrences of this notice will be suppressed.

........9........8........7........6........5........4........3........2........1........0
Number of accepted tran steps =             721

Notice from spectre during transient analysis `TmpRead-000_TmpRead', during task `MDLControl'.
    Trapezoidal ringing is detected during tran analysis.
        Please use method=trap for better results and performance.


Maximum value achieved for any signal of each quantity: 
V: V(X128.X1.nBiStable) = 10 V
I: I(X56.X1.eBiStable:p) = 19.95 A
If your circuit contains signals of the same quantity that are vastly different in size (such as high voltage circuitry combined with low voltage control circuitry), you should consider specifying global option `bin_relref=yes'.

~~~~~~~~~~~~~~~~~~~~~~~~~~~~~~~~~
Post-Transient Simulation Summary
~~~~~~~~~~~~~~~~~~~~~~~~~~~~~~~~~
   -   To further speed up simulation, consider
          add ++aps on command line
~~~~~~~~~~~~~~~~~~~~~~~~~~~~~~~~~


During simulation, the CPU load for active processors is :
        Spectre  0 (87.0 %)      1 (48.1 %)      2 (87.2 %)      3 (94.7 %)
        Other   
Initial condition solution time: CPU = 111.557 ms, elapsed = 111.6 ms.
Intrinsic tran analysis time:    CPU = 4.15506 s, elapsed = 4.18115 s.
Total time required for tran analysis `TmpRead-000_TmpRead': CPU = 4.28252 s, elapsed = 4.30894 s.
Time accumulated: CPU = 13.432 s, elapsed = 13.5752 s.
Peak resident memory used = 97.6 Mbytes.


Notice from spectre during task `MDLControl'.
    151 notices suppressed.


Value of Exported Variables in this iteration of the Search loop ( iteration = 3 ) :
CurBL=0.000289558
TpRd=1.25005e-10

++++++++++++++++++++
TpRead = 2.37493e-10
++++++++++++++++++++

***************************************************************
Transient Analysis `TmpRead-000_TmpRead': time = (0 s -> 10 ns)
***************************************************************
DC simulation time: CPU = 76.969 ms, elapsed = 76.9758 ms.

Notice from spectre during transient analysis `TmpRead-000_TmpRead', during task `MDLControl'.
    No outputs were found. Loosening output filter criterion to `allpub'.


Opening the PSF file Cell.raw/TmpRead-000_TmpRead.tran.tran ...
Important parameter values:
    start = 0 s
    outputstart = 0 s
    stop = 10 ns
    step = 10 ps
    maxstep = 200 ps
    ic = all
    useprevic = no
    skipdc = no
    reltol = 1e-03
    abstol(V) = 1 uV
    abstol(I) = 1 pA
    temp = 27 C
    tnom = 27 C
    tempeffects = all
    errpreset = moderate
    method = traponly
    lteratio = 3.5
    relref = sigglobal
    cmin = 0 F
    gmin = 1 pS


Output and IC/nodeset summary:
                 save   297     (current)
                 save   1961    (voltage)

..
Zero diagonal found in Jacobian at `X21.X1.eISensBin2:bs_p1_bs_p2_flow' and `X21.X1.vISample:p'.

Notice from spectre at time = 261.373 ps during transient analysis `TmpRead-000_TmpRead', during task `MDLControl'.
    Found trapezoidal ringing on node X49.M_i_1:int_b.
Notice from spectre at time = 263.423 ps during transient analysis `TmpRead-000_TmpRead', during task `MDLControl'.
    Found trapezoidal ringing on node X49.M_i_1:int_b.
Notice from spectre at time = 264.448 ps during transient analysis `TmpRead-000_TmpRead', during task `MDLControl'.
    Found trapezoidal ringing on node X49.M_i_1:int_b.
Notice from spectre at time = 266.498 ps during transient analysis `TmpRead-000_TmpRead', during task `MDLControl'.
    Found trapezoidal ringing on node X49.M_i_1:int_b.
Notice from spectre at time = 267.523 ps during transient analysis `TmpRead-000_TmpRead', during task `MDLControl'.
    Found trapezoidal ringing on node X49.M_i_1:int_b.
        Further occurrences of this notice will be suppressed.

........9........8........7........6........5........4........3........2........1........0
Number of accepted tran steps =             717

Notice from spectre during transient analysis `TmpRead-000_TmpRead', during task `MDLControl'.
    Trapezoidal ringing is detected during tran analysis.
        Please use method=trap for better results and performance.


Maximum value achieved for any signal of each quantity: 
V: V(X128.X1.nBiStable) = 10 V
I: I(X56.X1.eBiStable:p) = 19.95 A
If your circuit contains signals of the same quantity that are vastly different in size (such as high voltage circuitry combined with low voltage control circuitry), you should consider specifying global option `bin_relref=yes'.

~~~~~~~~~~~~~~~~~~~~~~~~~~~~~~~~~
Post-Transient Simulation Summary
~~~~~~~~~~~~~~~~~~~~~~~~~~~~~~~~~
   -   To further speed up simulation, consider
          add ++aps on command line
~~~~~~~~~~~~~~~~~~~~~~~~~~~~~~~~~


During simulation, the CPU load for active processors is :
        Spectre  0 (89.9 %)      1 (59.8 %)      2 (73.1 %)      3 (93.9 %)
        Other   
Initial condition solution time: CPU = 77.092 ms, elapsed = 77.127 ms.
Intrinsic tran analysis time:    CPU = 4.09612 s, elapsed = 4.12738 s.
Total time required for tran analysis `TmpRead-000_TmpRead': CPU = 4.18768 s, elapsed = 4.21912 s.
Time accumulated: CPU = 17.6608 s, elapsed = 17.8357 s.
Peak resident memory used = 97.6 Mbytes.


Notice from spectre during task `MDLControl'.
    153 notices suppressed.


Value of Exported Variables in this iteration of the Search loop ( iteration = 4 ) :
CurBL=0.000289552
TpRd=6.25075e-11

++++++++++++++++++++
TpRead = 2.68741e-10
++++++++++++++++++++

***************************************************************
Transient Analysis `TmpRead-000_TmpRead': time = (0 s -> 10 ns)
***************************************************************
DC simulation time: CPU = 70.963 ms, elapsed = 71.0471 ms.

Notice from spectre during transient analysis `TmpRead-000_TmpRead', during task `MDLControl'.
    No outputs were found. Loosening output filter criterion to `allpub'.


Opening the PSF file Cell.raw/TmpRead-000_TmpRead.tran.tran ...
Important parameter values:
    start = 0 s
    outputstart = 0 s
    stop = 10 ns
    step = 10 ps
    maxstep = 200 ps
    ic = all
    useprevic = no
    skipdc = no
    reltol = 1e-03
    abstol(V) = 1 uV
    abstol(I) = 1 pA
    temp = 27 C
    tnom = 27 C
    tempeffects = all
    errpreset = moderate
    method = traponly
    lteratio = 3.5
    relref = sigglobal
    cmin = 0 F
    gmin = 1 pS


Output and IC/nodeset summary:
                 save   297     (current)
                 save   1961    (voltage)

...

Notice from spectre at time = 292.622 ps during transient analysis `TmpRead-000_TmpRead', during task `MDLControl'.
    Found trapezoidal ringing on node X49.M_i_1:int_b.
Notice from spectre at time = 294.672 ps during transient analysis `TmpRead-000_TmpRead', during task `MDLControl'.
    Found trapezoidal ringing on node X49.M_i_1:int_b.
Notice from spectre at time = 295.697 ps during transient analysis `TmpRead-000_TmpRead', during task `MDLControl'.
    Found trapezoidal ringing on node X49.M_i_1:int_b.
Notice from spectre at time = 297.747 ps during transient analysis `TmpRead-000_TmpRead', during task `MDLControl'.
    Found trapezoidal ringing on node X49.M_i_1:int_b.
Notice from spectre at time = 298.772 ps during transient analysis `TmpRead-000_TmpRead', during task `MDLControl'.
    Found trapezoidal ringing on node X49.M_i_1:int_b.
        Further occurrences of this notice will be suppressed.

........9
Zero diagonal found in Jacobian at `X24.X1.eISensBin1:bs_p1_bs_p2_flow' and `X24.X1.vISample:p'.
Zero diagonal found in Jacobian at `X24.X1.eISensBin1:bs_p1_bs_p2_flow' and `X24.X1.vISample:p'.
Zero diagonal found in Jacobian at `X24.X1.eISensBin1:bs_p1_bs_p2_flow' and `X24.X1.vISample:p'.
Zero diagonal found in Jacobian at `X24.X1.eISensBin1:bs_p1_bs_p2_flow' and `X24.X1.vISample:p'.
Zero diagonal found in Jacobian at `X24.X1.eISensBin1:bs_p1_bs_p2_flow' and `X24.X1.vISample:p'.
Zero diagonal found in Jacobian at `X24.X1.eISensBin1:bs_p1_bs_p2_flow' and `X24.X1.vISample:p'.
Zero diagonal found in Jacobian at `X24.X1.eISensBin1:bs_p1_bs_p2_flow' and `X24.X1.vISample:p'.
Zero diagonal found in Jacobian at `X24.X1.eISensBin1:bs_p1_bs_p2_flow' and `X24.X1.vISample:p'.
Zero diagonal found in Jacobian at `X24.X1.eISensBin1:bs_p1_bs_p2_flow' and `X24.X1.vISample:p'.
Zero diagonal found in Jacobian at `X24.X1.eISensBin1:bs_p1_bs_p2_flow' and `X24.X1.vISample:p'.
Zero diagonal found in Jacobian at `X24.X1.eISensBin1:bs_p1_bs_p2_flow' and `X24.X1.vISample:p'.
Zero diagonal found in Jacobian at `X24.X1.eISensBin1:bs_p1_bs_p2_flow' and `X24.X1.vISample:p'.
Zero diagonal found in Jacobian at `X24.X1.eISensBin1:bs_p1_bs_p2_flow' and `X24.X1.vISample:p'.
Zero diagonal found in Jacobian at `X24.X1.eISensBin1:bs_p1_bs_p2_flow' and `X24.X1.vISample:p'.

Notice from spectre at time = 999 ps during transient analysis `TmpRead-000_TmpRead', during task `MDLControl'.
    Newton iteration fails to converge at time = 999 ps step = 100.089e-24 s.
        Disaster recovery algorithm is enabled to search for a converged solution.

........9........8........7........6........5........4........3........2........1........0
Number of accepted tran steps =             715

Notice from spectre during transient analysis `TmpRead-000_TmpRead', during task `MDLControl'.
    Trapezoidal ringing is detected during tran analysis.
        Please use method=trap for better results and performance.


Maximum value achieved for any signal of each quantity: 
V: V(X128.X1.nBiStable) = 10 V
I: I(X56.X1.eBiStable:p) = 19.95 A
If your circuit contains signals of the same quantity that are vastly different in size (such as high voltage circuitry combined with low voltage control circuitry), you should consider specifying global option `bin_relref=yes'.

~~~~~~~~~~~~~~~~~~~~~~~~~~~~~~~~~
Post-Transient Simulation Summary
~~~~~~~~~~~~~~~~~~~~~~~~~~~~~~~~~
   -   To further speed up simulation, consider
          add ++aps on command line
~~~~~~~~~~~~~~~~~~~~~~~~~~~~~~~~~


During simulation, the CPU load for active processors is :
        Spectre  0 (84.5 %)      1 (68.0 %)      2 (78.5 %)      3 (86.2 %)
        Other   
Initial condition solution time: CPU = 71.057 ms, elapsed = 71.1601 ms.
Intrinsic tran analysis time:    CPU = 4.42481 s, elapsed = 4.44539 s.
Total time required for tran analysis `TmpRead-000_TmpRead': CPU = 4.50898 s, elapsed = 4.52979 s.
Time accumulated: CPU = 22.2112 s, elapsed = 22.4069 s.
Peak resident memory used = 97.6 Mbytes.


Notice from spectre during task `MDLControl'.
    158 notices suppressed.


Value of Exported Variables in this iteration of the Search loop ( iteration = 5 ) :
CurBL=0.000288782
TpRd=3.12587e-11

++++++++++++++++++++
TpRead = 2.84366e-10
++++++++++++++++++++

***************************************************************
Transient Analysis `TmpRead-000_TmpRead': time = (0 s -> 10 ns)
***************************************************************
DC simulation time: CPU = 88.495 ms, elapsed = 88.501 ms.

Notice from spectre during transient analysis `TmpRead-000_TmpRead', during task `MDLControl'.
    No outputs were found. Loosening output filter criterion to `allpub'.


Opening the PSF file Cell.raw/TmpRead-000_TmpRead.tran.tran ...
Important parameter values:
    start = 0 s
    outputstart = 0 s
    stop = 10 ns
    step = 10 ps
    maxstep = 200 ps
    ic = all
    useprevic = no
    skipdc = no
    reltol = 1e-03
    abstol(V) = 1 uV
    abstol(I) = 1 pA
    temp = 27 C
    tnom = 27 C
    tempeffects = all
    errpreset = moderate
    method = traponly
    lteratio = 3.5
    relref = sigglobal
    cmin = 0 F
    gmin = 1 pS


Output and IC/nodeset summary:
                 save   297     (current)
                 save   1961    (voltage)

...
Zero diagonal found in Jacobian at `X74.X1.eISensBin2:bs_p1_bs_p2_flow' and `X74.X1.vISample:p'.

Notice from spectre at time = 308.246 ps during transient analysis `TmpRead-000_TmpRead', during task `MDLControl'.
    Found trapezoidal ringing on node X52.M_i_1:int_b.
Notice from spectre at time = 310.296 ps during transient analysis `TmpRead-000_TmpRead', during task `MDLControl'.
    Found trapezoidal ringing on node X52.M_i_1:int_b.
Notice from spectre at time = 311.321 ps during transient analysis `TmpRead-000_TmpRead', during task `MDLControl'.
    Found trapezoidal ringing on node X52.M_i_1:int_b.
Notice from spectre at time = 313.371 ps during transient analysis `TmpRead-000_TmpRead', during task `MDLControl'.
    Found trapezoidal ringing on node X52.M_i_1:int_b.
Notice from spectre at time = 314.396 ps during transient analysis `TmpRead-000_TmpRead', during task `MDLControl'.
    Found trapezoidal ringing on node X52.M_i_1:int_b.
        Further occurrences of this notice will be suppressed.

........9
Zero diagonal found in Jacobian at `X120.X1.eISensBin1:bs_p1_bs_p2_flow' and `X120.X1.vISample:p'.
Zero diagonal found in Jacobian at `X120.X1.eISensBin1:bs_p1_bs_p2_flow' and `X120.X1.vISample:p'.
Zero diagonal found in Jacobian at `X120.X1.eISensBin1:bs_p1_bs_p2_flow' and `X120.X1.vISample:p'.
Zero diagonal found in Jacobian at `X120.X1.eISensBin1:bs_p1_bs_p2_flow' and `X120.X1.vISample:p'.
Zero diagonal found in Jacobian at `X120.X1.eISensBin1:bs_p1_bs_p2_flow' and `X120.X1.vISample:p'.
Zero diagonal found in Jacobian at `X120.X1.eISensBin1:bs_p1_bs_p2_flow' and `X120.X1.vISample:p'.
Zero diagonal found in Jacobian at `X120.X1.eISensBin1:bs_p1_bs_p2_flow' and `X120.X1.vISample:p'.
Zero diagonal found in Jacobian at `X120.X1.eISensBin1:bs_p1_bs_p2_flow' and `X120.X1.vISample:p'.
Zero diagonal found in Jacobian at `X120.X1.eISensBin1:bs_p1_bs_p2_flow' and `X120.X1.vISample:p'.
Zero diagonal found in Jacobian at `X120.X1.eISensBin1:bs_p1_bs_p2_flow' and `X120.X1.vISample:p'.
........8........7........6........5........4........3........2........1........0
Number of accepted tran steps =             770

Notice from spectre during transient analysis `TmpRead-000_TmpRead', during task `MDLControl'.
    Trapezoidal ringing is detected during tran analysis.
        Please use method=trap for better results and performance.


Maximum value achieved for any signal of each quantity: 
V: V(X128.X1.nBiStable) = 10 V
I: I(X56.X1.eBiStable:p) = 19.95 A
If your circuit contains signals of the same quantity that are vastly different in size (such as high voltage circuitry combined with low voltage control circuitry), you should consider specifying global option `bin_relref=yes'.

~~~~~~~~~~~~~~~~~~~~~~~~~~~~~~~~~
Post-Transient Simulation Summary
~~~~~~~~~~~~~~~~~~~~~~~~~~~~~~~~~
   -   To further speed up simulation, consider
          add ++aps on command line
~~~~~~~~~~~~~~~~~~~~~~~~~~~~~~~~~


During simulation, the CPU load for active processors is :
        Spectre  0 (81.4 %)      1 (72.8 %)      2 (74.5 %)      3 (88.2 %)
        Other   
Initial condition solution time: CPU = 88.58 ms, elapsed = 88.6049 ms.
Intrinsic tran analysis time:    CPU = 4.6249 s, elapsed = 4.64785 s.
Total time required for tran analysis `TmpRead-000_TmpRead': CPU = 4.72942 s, elapsed = 4.75254 s.
Time accumulated: CPU = 26.9808 s, elapsed = 27.1997 s.
Peak resident memory used = 97.6 Mbytes.


Notice from spectre during task `MDLControl'.
    151 notices suppressed.


Value of Exported Variables in this iteration of the Search loop ( iteration = 6 ) :
CurBL=0.000257321
TpRd=1.56344e-11

++++++++++++++++++++
TpRead = 2.76553e-10
++++++++++++++++++++

***************************************************************
Transient Analysis `TmpRead-000_TmpRead': time = (0 s -> 10 ns)
***************************************************************
DC simulation time: CPU = 99.197 ms, elapsed = 99.2041 ms.

Notice from spectre during transient analysis `TmpRead-000_TmpRead', during task `MDLControl'.
    No outputs were found. Loosening output filter criterion to `allpub'.


Opening the PSF file Cell.raw/TmpRead-000_TmpRead.tran.tran ...
Important parameter values:
    start = 0 s
    outputstart = 0 s
    stop = 10 ns
    step = 10 ps
    maxstep = 200 ps
    ic = all
    useprevic = no
    skipdc = no
    reltol = 1e-03
    abstol(V) = 1 uV
    abstol(I) = 1 pA
    temp = 27 C
    tnom = 27 C
    tempeffects = all
    errpreset = moderate
    method = traponly
    lteratio = 3.5
    relref = sigglobal
    cmin = 0 F
    gmin = 1 pS


Output and IC/nodeset summary:
                 save   297     (current)
                 save   1961    (voltage)

..
Zero diagonal found in Jacobian at `X123.X1.eISensBin2:bs_p1_bs_p2_flow' and `X123.X1.vISample:p'.
.

Notice from spectre at time = 300.434 ps during transient analysis `TmpRead-000_TmpRead', during task `MDLControl'.
    Found trapezoidal ringing on node X49.M_i_1:int_b.
Notice from spectre at time = 302.484 ps during transient analysis `TmpRead-000_TmpRead', during task `MDLControl'.
    Found trapezoidal ringing on node X49.M_i_1:int_b.
Notice from spectre at time = 303.509 ps during transient analysis `TmpRead-000_TmpRead', during task `MDLControl'.
    Found trapezoidal ringing on node X49.M_i_1:int_b.
Notice from spectre at time = 305.559 ps during transient analysis `TmpRead-000_TmpRead', during task `MDLControl'.
    Found trapezoidal ringing on node X49.M_i_1:int_b.
Notice from spectre at time = 306.584 ps during transient analysis `TmpRead-000_TmpRead', during task `MDLControl'.
    Found trapezoidal ringing on node X49.M_i_1:int_b.
        Further occurrences of this notice will be suppressed.

........9........8........7........6........5........4........3........2........1........0
Number of accepted tran steps =             718

Notice from spectre during transient analysis `TmpRead-000_TmpRead', during task `MDLControl'.
    Trapezoidal ringing is detected during tran analysis.
        Please use method=trap for better results and performance.


Maximum value achieved for any signal of each quantity: 
V: V(X128.X1.nBiStable) = 10 V
I: I(X56.X1.eBiStable:p) = 19.95 A
If your circuit contains signals of the same quantity that are vastly different in size (such as high voltage circuitry combined with low voltage control circuitry), you should consider specifying global option `bin_relref=yes'.

~~~~~~~~~~~~~~~~~~~~~~~~~~~~~~~~~
Post-Transient Simulation Summary
~~~~~~~~~~~~~~~~~~~~~~~~~~~~~~~~~
   -   To further speed up simulation, consider
          add ++aps on command line
~~~~~~~~~~~~~~~~~~~~~~~~~~~~~~~~~


During simulation, the CPU load for active processors is :
        Spectre  0 (83.8 %)      1 (76.4 %)      2 (77.4 %)      3 (79.0 %)
        Other   
Initial condition solution time: CPU = 99.315 ms, elapsed = 99.3428 ms.
Intrinsic tran analysis time:    CPU = 3.96325 s, elapsed = 3.99791 s.
Total time required for tran analysis `TmpRead-000_TmpRead': CPU = 4.07774 s, elapsed = 4.11255 s.
Time accumulated: CPU = 31.1008 s, elapsed = 31.3551 s.
Peak resident memory used = 97.6 Mbytes.


Notice from spectre during task `MDLControl'.
    150 notices suppressed.


Value of Exported Variables in this iteration of the Search loop ( iteration = 7 ) :
CurBL=0.000281296
TpRd=2.34466e-11

+++++++++++++++++++
TpRead = 2.8046e-10
+++++++++++++++++++

***************************************************************
Transient Analysis `TmpRead-000_TmpRead': time = (0 s -> 10 ns)
***************************************************************
DC simulation time: CPU = 77.165 ms, elapsed = 77.1718 ms.

Notice from spectre during transient analysis `TmpRead-000_TmpRead', during task `MDLControl'.
    No outputs were found. Loosening output filter criterion to `allpub'.


Opening the PSF file Cell.raw/TmpRead-000_TmpRead.tran.tran ...
Important parameter values:
    start = 0 s
    outputstart = 0 s
    stop = 10 ns
    step = 10 ps
    maxstep = 200 ps
    ic = all
    useprevic = no
    skipdc = no
    reltol = 1e-03
    abstol(V) = 1 uV
    abstol(I) = 1 pA
    temp = 27 C
    tnom = 27 C
    tempeffects = all
    errpreset = moderate
    method = traponly
    lteratio = 3.5
    relref = sigglobal
    cmin = 0 F
    gmin = 1 pS


Output and IC/nodeset summary:
                 save   297     (current)
                 save   1961    (voltage)

...
Zero diagonal found in Jacobian at `X102.X1.eISensBin2:bs_p1_bs_p2_flow' and `X102.X1.vISample:p'.

Notice from spectre at time = 304.34 ps during transient analysis `TmpRead-000_TmpRead', during task `MDLControl'.
    Found trapezoidal ringing on node X62.M_i_1:int_b.
Notice from spectre at time = 306.39 ps during transient analysis `TmpRead-000_TmpRead', during task `MDLControl'.
    Found trapezoidal ringing on node X62.M_i_1:int_b.
Notice from spectre at time = 307.415 ps during transient analysis `TmpRead-000_TmpRead', during task `MDLControl'.
    Found trapezoidal ringing on node X62.M_i_1:int_b.
Notice from spectre at time = 309.465 ps during transient analysis `TmpRead-000_TmpRead', during task `MDLControl'.
    Found trapezoidal ringing on node X62.M_i_1:int_b.
Notice from spectre at time = 310.49 ps during transient analysis `TmpRead-000_TmpRead', during task `MDLControl'.
    Found trapezoidal ringing on node X62.M_i_1:int_b.
        Further occurrences of this notice will be suppressed.

........9........8........7........6........5........4........3........2........1........0
Number of accepted tran steps =             718

Notice from spectre during transient analysis `TmpRead-000_TmpRead', during task `MDLControl'.
    Trapezoidal ringing is detected during tran analysis.
        Please use method=trap for better results and performance.


Maximum value achieved for any signal of each quantity: 
V: V(X128.X1.nBiStable) = 10 V
I: I(X56.X1.eBiStable:p) = 19.95 A
If your circuit contains signals of the same quantity that are vastly different in size (such as high voltage circuitry combined with low voltage control circuitry), you should consider specifying global option `bin_relref=yes'.

~~~~~~~~~~~~~~~~~~~~~~~~~~~~~~~~~
Post-Transient Simulation Summary
~~~~~~~~~~~~~~~~~~~~~~~~~~~~~~~~~
   -   To further speed up simulation, consider
          add ++aps on command line
~~~~~~~~~~~~~~~~~~~~~~~~~~~~~~~~~


During simulation, the CPU load for active processors is :
        Spectre  0 (80.9 %)      1 (79.2 %)      2 (75.0 %)      3 (81.2 %)
        Other   
Initial condition solution time: CPU = 77.272 ms, elapsed = 77.302 ms.
Intrinsic tran analysis time:    CPU = 4.15139 s, elapsed = 4.1702 s.
Total time required for tran analysis `TmpRead-000_TmpRead': CPU = 4.24352 s, elapsed = 4.26275 s.
Time accumulated: CPU = 35.3869 s, elapsed = 35.6606 s.
Peak resident memory used = 97.6 Mbytes.


Notice from spectre during task `MDLControl'.
    150 notices suppressed.


Value of Exported Variables in this iteration of the Search loop ( iteration = 8 ) :
CurBL=0.000274114
TpRd=1.95405e-11

++++++++++++++++++++
TpRead = 2.82413e-10
++++++++++++++++++++

***************************************************************
Transient Analysis `TmpRead-000_TmpRead': time = (0 s -> 10 ns)
***************************************************************
DC simulation time: CPU = 79.781 ms, elapsed = 79.797 ms.

Notice from spectre during transient analysis `TmpRead-000_TmpRead', during task `MDLControl'.
    No outputs were found. Loosening output filter criterion to `allpub'.


Opening the PSF file Cell.raw/TmpRead-000_TmpRead.tran.tran ...
Important parameter values:
    start = 0 s
    outputstart = 0 s
    stop = 10 ns
    step = 10 ps
    maxstep = 200 ps
    ic = all
    useprevic = no
    skipdc = no
    reltol = 1e-03
    abstol(V) = 1 uV
    abstol(I) = 1 pA
    temp = 27 C
    tnom = 27 C
    tempeffects = all
    errpreset = moderate
    method = traponly
    lteratio = 3.5
    relref = sigglobal
    cmin = 0 F
    gmin = 1 pS


Output and IC/nodeset summary:
                 save   297     (current)
                 save   1961    (voltage)

...

Notice from spectre at time = 306.293 ps during transient analysis `TmpRead-000_TmpRead', during task `MDLControl'.
    Found trapezoidal ringing on node X49.M_i_1:int_b.
Notice from spectre at time = 308.343 ps during transient analysis `TmpRead-000_TmpRead', during task `MDLControl'.
    Found trapezoidal ringing on node X49.M_i_1:int_b.
Notice from spectre at time = 309.368 ps during transient analysis `TmpRead-000_TmpRead', during task `MDLControl'.
    Found trapezoidal ringing on node X49.M_i_1:int_b.
Notice from spectre at time = 311.418 ps during transient analysis `TmpRead-000_TmpRead', during task `MDLControl'.
    Found trapezoidal ringing on node X49.M_i_1:int_b.
Notice from spectre at time = 312.443 ps during transient analysis `TmpRead-000_TmpRead', during task `MDLControl'.
    Found trapezoidal ringing on node X49.M_i_1:int_b.
        Further occurrences of this notice will be suppressed.

........9........8........7........6........5........4........3........2........1........0
Number of accepted tran steps =             718

Notice from spectre during transient analysis `TmpRead-000_TmpRead', during task `MDLControl'.
    Trapezoidal ringing is detected during tran analysis.
        Please use method=trap for better results and performance.


Maximum value achieved for any signal of each quantity: 
V: V(X128.X1.nBiStable) = 10 V
I: I(X56.X1.eBiStable:p) = 19.95 A
If your circuit contains signals of the same quantity that are vastly different in size (such as high voltage circuitry combined with low voltage control circuitry), you should consider specifying global option `bin_relref=yes'.

~~~~~~~~~~~~~~~~~~~~~~~~~~~~~~~~~
Post-Transient Simulation Summary
~~~~~~~~~~~~~~~~~~~~~~~~~~~~~~~~~
   -   To further speed up simulation, consider
          add ++aps on command line
~~~~~~~~~~~~~~~~~~~~~~~~~~~~~~~~~


During simulation, the CPU load for active processors is :
        Spectre  0 (73.8 %)      1 (81.5 %)      2 (77.7 %)      3 (83.2 %)
        Other   
Initial condition solution time: CPU = 79.889 ms, elapsed = 79.9279 ms.
Intrinsic tran analysis time:    CPU = 4.14905 s, elapsed = 4.17091 s.
Total time required for tran analysis `TmpRead-000_TmpRead': CPU = 4.24549 s, elapsed = 4.26753 s.
Time accumulated: CPU = 39.6754 s, elapsed = 39.9711 s.
Peak resident memory used = 97.6 Mbytes.


Notice from spectre during task `MDLControl'.
    152 notices suppressed.


Value of Exported Variables in this iteration of the Search loop ( iteration = 9 ) :
CurBL=0.000266306
TpRd=1.75874e-11

++++++++++++++++++++
TpRead = 2.81436e-10
++++++++++++++++++++

***************************************************************
Transient Analysis `TmpRead-000_TmpRead': time = (0 s -> 10 ns)
***************************************************************
DC simulation time: CPU = 78.664 ms, elapsed = 78.67 ms.

Notice from spectre during transient analysis `TmpRead-000_TmpRead', during task `MDLControl'.
    No outputs were found. Loosening output filter criterion to `allpub'.


Opening the PSF file Cell.raw/TmpRead-000_TmpRead.tran.tran ...
Important parameter values:
    start = 0 s
    outputstart = 0 s
    stop = 10 ns
    step = 10 ps
    maxstep = 200 ps
    ic = all
    useprevic = no
    skipdc = no
    reltol = 1e-03
    abstol(V) = 1 uV
    abstol(I) = 1 pA
    temp = 27 C
    tnom = 27 C
    tempeffects = all
    errpreset = moderate
    method = traponly
    lteratio = 3.5
    relref = sigglobal
    cmin = 0 F
    gmin = 1 pS


Output and IC/nodeset summary:
                 save   297     (current)
                 save   1961    (voltage)

...
Zero diagonal found in Jacobian at `X23.X1.eISensBin2:bs_p1_bs_p2_flow' and `X23.X1.vISample:p'.
Zero diagonal found in Jacobian at `X23.X1.eISensBin2:bs_p1_bs_p2_flow' and `X23.X1.vISample:p'.
Zero diagonal found in Jacobian at `X23.X1.eISensBin2:bs_p1_bs_p2_flow' and `X23.X1.vISample:p'.
Zero diagonal found in Jacobian at `X23.X1.eISensBin2:bs_p1_bs_p2_flow' and `X23.X1.vISample:p'.
Zero diagonal found in Jacobian at `X23.X1.eISensBin2:bs_p1_bs_p2_flow' and `X23.X1.vISample:p'.
Zero diagonal found in Jacobian at `X23.X1.eISensBin2:bs_p1_bs_p2_flow' and `X23.X1.vISample:p'.

Notice from spectre at time = 305.312 ps during transient analysis `TmpRead-000_TmpRead', during task `MDLControl'.
    Found trapezoidal ringing on node X49.M_i_1:int_b.
Notice from spectre at time = 307.362 ps during transient analysis `TmpRead-000_TmpRead', during task `MDLControl'.
    Found trapezoidal ringing on node X49.M_i_1:int_b.
Notice from spectre at time = 308.387 ps during transient analysis `TmpRead-000_TmpRead', during task `MDLControl'.
    Found trapezoidal ringing on node X49.M_i_1:int_b.
Notice from spectre at time = 310.437 ps during transient analysis `TmpRead-000_TmpRead', during task `MDLControl'.
    Found trapezoidal ringing on node X49.M_i_1:int_b.
Notice from spectre at time = 311.462 ps during transient analysis `TmpRead-000_TmpRead', during task `MDLControl'.
    Found trapezoidal ringing on node X49.M_i_1:int_b.
        Further occurrences of this notice will be suppressed.

........9........8........7........6........5........4........3........2........1........0
Number of accepted tran steps =             724

Notice from spectre during transient analysis `TmpRead-000_TmpRead', during task `MDLControl'.
    Trapezoidal ringing is detected during tran analysis.
        Please use method=trap for better results and performance.


Maximum value achieved for any signal of each quantity: 
V: V(X128.X1.nBiStable) = 10 V
I: I(X56.X1.eBiStable:p) = 19.72 A
If your circuit contains signals of the same quantity that are vastly different in size (such as high voltage circuitry combined with low voltage control circuitry), you should consider specifying global option `bin_relref=yes'.

~~~~~~~~~~~~~~~~~~~~~~~~~~~~~~~~~
Post-Transient Simulation Summary
~~~~~~~~~~~~~~~~~~~~~~~~~~~~~~~~~
   -   To further speed up simulation, consider
          add ++aps on command line
~~~~~~~~~~~~~~~~~~~~~~~~~~~~~~~~~


During simulation, the CPU load for active processors is :
        Spectre  0 (76.2 %)      1 (83.3 %)      2 (79.9 %)      3 (76.6 %)
        Other   
Initial condition solution time: CPU = 78.775 ms, elapsed = 78.8009 ms.
Intrinsic tran analysis time:    CPU = 4.28758 s, elapsed = 4.31151 s.
Total time required for tran analysis `TmpRead-000_TmpRead': CPU = 4.38211 s, elapsed = 4.4062 s.
Time accumulated: CPU = 44.0991 s, elapsed = 44.419 s.
Peak resident memory used = 97.6 Mbytes.


Notice from spectre during task `MDLControl'.
    152 notices suppressed.


Value of Exported Variables in this iteration of the Search loop ( iteration = 10 ) :
CurBL=0.000270798
TpRd=1.85639e-11

++++++++++++++++++++
TpRead = 2.81924e-10
++++++++++++++++++++

***************************************************************
Transient Analysis `TmpRead-000_TmpRead': time = (0 s -> 10 ns)
***************************************************************
DC simulation time: CPU = 88.433 ms, elapsed = 88.4399 ms.

Notice from spectre during transient analysis `TmpRead-000_TmpRead', during task `MDLControl'.
    No outputs were found. Loosening output filter criterion to `allpub'.


Opening the PSF file Cell.raw/TmpRead-000_TmpRead.tran.tran ...
Important parameter values:
    start = 0 s
    outputstart = 0 s
    stop = 10 ns
    step = 10 ps
    maxstep = 200 ps
    ic = all
    useprevic = no
    skipdc = no
    reltol = 1e-03
    abstol(V) = 1 uV
    abstol(I) = 1 pA
    temp = 27 C
    tnom = 27 C
    tempeffects = all
    errpreset = moderate
    method = traponly
    lteratio = 3.5
    relref = sigglobal
    cmin = 0 F
    gmin = 1 pS


Output and IC/nodeset summary:
                 save   297     (current)
                 save   1961    (voltage)

...
Zero diagonal found in Jacobian at `X52.X1.eISensBin2:bs_p1_bs_p2_flow' and `X52.X1.vISample:p'.
Zero diagonal found in Jacobian at `X52.X1.eISensBin2:bs_p1_bs_p2_flow' and `X52.X1.vISample:p'.
Zero diagonal found in Jacobian at `X52.X1.eISensBin2:bs_p1_bs_p2_flow' and `X52.X1.vISample:p'.
Zero diagonal found in Jacobian at `X52.X1.eISensBin2:bs_p1_bs_p2_flow' and `X52.X1.vISample:p'.
Zero diagonal found in Jacobian at `X52.X1.eISensBin2:bs_p1_bs_p2_flow' and `X52.X1.vISample:p'.
Zero diagonal found in Jacobian at `X52.X1.eISensBin2:bs_p1_bs_p2_flow' and `X52.X1.vISample:p'.
Zero diagonal found in Jacobian at `X52.X1.eISensBin2:bs_p1_bs_p2_flow' and `X52.X1.vISample:p'.
Zero diagonal found in Jacobian at `X52.X1.eISensBin2:bs_p1_bs_p2_flow' and `X52.X1.vISample:p'.
Zero diagonal found in Jacobian at `X52.X1.eISensBin2:bs_p1_bs_p2_flow' and `X52.X1.vISample:p'.
Zero diagonal found in Jacobian at `X52.X1.eISensBin2:bs_p1_bs_p2_flow' and `X52.X1.vISample:p'.
Zero diagonal found in Jacobian at `X52.X1.eISensBin2:bs_p1_bs_p2_flow' and `X52.X1.vISample:p'.
Zero diagonal found in Jacobian at `X52.X1.eISensBin2:bs_p1_bs_p2_flow' and `X52.X1.vISample:p'.
Zero diagonal found in Jacobian at `X52.X1.eISensBin2:bs_p1_bs_p2_flow' and `X52.X1.vISample:p'.

Notice from spectre at time = 280.924 ps during transient analysis `TmpRead-000_TmpRead', during task `MDLControl'.
    Newton iteration fails to converge at time = 280.924 ps step = 99.9855e-24 s.
        Disaster recovery algorithm is enabled to search for a converged solution.

....

Notice from spectre at time = 439.434 ps during transient analysis `TmpRead-000_TmpRead', during task `MDLControl'.
    Found trapezoidal ringing on node X56.X1.eBiStable:p.
Notice from spectre at time = 470.513 ps during transient analysis `TmpRead-000_TmpRead', during task `MDLControl'.
    Found trapezoidal ringing on node X56.X1.eBiStable:p.
Notice from spectre at time = 496.968 ps during transient analysis `TmpRead-000_TmpRead', during task `MDLControl'.
    Found trapezoidal ringing on node X56.X1.eBiStable:p.

.....

Notice from spectre at time = 518.865 ps during transient analysis `TmpRead-000_TmpRead', during task `MDLControl'.
    Found trapezoidal ringing on node X56.X1.eBiStable:p.
Notice from spectre at time = 539.52 ps during transient analysis `TmpRead-000_TmpRead', during task `MDLControl'.
    Found trapezoidal ringing on node X56.X1.eBiStable:p.
        Further occurrences of this notice will be suppressed.

........9........8........7........6........5........4........3........2........1........0
Number of accepted tran steps =             732

Notice from spectre during transient analysis `TmpRead-000_TmpRead', during task `MDLControl'.
    Trapezoidal ringing is detected during tran analysis.
        Please use method=trap for better results and performance.


Maximum value achieved for any signal of each quantity: 
V: V(X128.X1.nBiStable) = 10 V
I: I(X56.X1.eBiStable:p) = 19.95 A
If your circuit contains signals of the same quantity that are vastly different in size (such as high voltage circuitry combined with low voltage control circuitry), you should consider specifying global option `bin_relref=yes'.

~~~~~~~~~~~~~~~~~~~~~~~~~~~~~~~~~
Post-Transient Simulation Summary
~~~~~~~~~~~~~~~~~~~~~~~~~~~~~~~~~
   -   To further speed up simulation, consider
          add ++aps on command line
~~~~~~~~~~~~~~~~~~~~~~~~~~~~~~~~~


During simulation, the CPU load for active processors is :
        Spectre  0 (78.6 %)      1 (85.0 %)      2 (78.6 %)      3 (73.6 %)
        Other   
Initial condition solution time: CPU = 88.57 ms, elapsed = 88.598 ms.
Intrinsic tran analysis time:    CPU = 4.90925 s, elapsed = 4.93104 s.
Total time required for tran analysis `TmpRead-000_TmpRead': CPU = 5.01384 s, elapsed = 5.03578 s.
Time accumulated: CPU = 49.1536 s, elapsed = 49.4956 s.
Peak resident memory used = 97.6 Mbytes.


Notice from spectre during task `MDLControl'.
    161 notices suppressed.


Value of Exported Variables in this iteration of the Search loop ( iteration = 11 ) :
CurBL=0.000268552
TpRd=1.80757e-11

+++++++++++++++++++
TpRead = 2.8168e-10
+++++++++++++++++++

***************************************************************
Transient Analysis `TmpRead-000_TmpRead': time = (0 s -> 10 ns)
***************************************************************
DC simulation time: CPU = 108.089 ms, elapsed = 108.096 ms.

Notice from spectre during transient analysis `TmpRead-000_TmpRead', during task `MDLControl'.
    No outputs were found. Loosening output filter criterion to `allpub'.


Opening the PSF file Cell.raw/TmpRead-000_TmpRead.tran.tran ...
Important parameter values:
    start = 0 s
    outputstart = 0 s
    stop = 10 ns
    step = 10 ps
    maxstep = 200 ps
    ic = all
    useprevic = no
    skipdc = no
    reltol = 1e-03
    abstol(V) = 1 uV
    abstol(I) = 1 pA
    temp = 27 C
    tnom = 27 C
    tempeffects = all
    errpreset = moderate
    method = traponly
    lteratio = 3.5
    relref = sigglobal
    cmin = 0 F
    gmin = 1 pS


Output and IC/nodeset summary:
                 save   297     (current)
                 save   1961    (voltage)

...
Zero diagonal found in Jacobian at `X69.X1.elim1:p' and `X69.X1.n50'.

Notice from spectre at time = 305.577 ps during transient analysis `TmpRead-000_TmpRead', during task `MDLControl'.
    Found trapezoidal ringing on node X49.M_i_1:int_b.
Notice from spectre at time = 307.628 ps during transient analysis `TmpRead-000_TmpRead', during task `MDLControl'.
    Found trapezoidal ringing on node X49.M_i_1:int_b.
Notice from spectre at time = 308.654 ps during transient analysis `TmpRead-000_TmpRead', during task `MDLControl'.
    Found trapezoidal ringing on node X49.M_i_1:int_b.
Notice from spectre at time = 310.705 ps during transient analysis `TmpRead-000_TmpRead', during task `MDLControl'.
    Found trapezoidal ringing on node X49.M_i_1:int_b.
Notice from spectre at time = 311.731 ps during transient analysis `TmpRead-000_TmpRead', during task `MDLControl'.
    Found trapezoidal ringing on node X49.M_i_1:int_b.
        Further occurrences of this notice will be suppressed.

........9........8........7........6........5........4........3........2........1........0
Number of accepted tran steps =             733

Notice from spectre during transient analysis `TmpRead-000_TmpRead', during task `MDLControl'.
    Trapezoidal ringing is detected during tran analysis.
        Please use method=trap for better results and performance.


Maximum value achieved for any signal of each quantity: 
V: V(X128.X1.nBiStable) = 10 V
I: I(X56.X1.eBiStable:p) = 19.61 A
If your circuit contains signals of the same quantity that are vastly different in size (such as high voltage circuitry combined with low voltage control circuitry), you should consider specifying global option `bin_relref=yes'.

~~~~~~~~~~~~~~~~~~~~~~~~~~~~~~~~~
Post-Transient Simulation Summary
~~~~~~~~~~~~~~~~~~~~~~~~~~~~~~~~~
   -   To further speed up simulation, consider
          add ++aps on command line
~~~~~~~~~~~~~~~~~~~~~~~~~~~~~~~~~


During simulation, the CPU load for active processors is :
        Spectre  0 (77.7 %)      1 (86.3 %)      2 (79.4 %)      3 (72.7 %)
        Other   
Initial condition solution time: CPU = 108.204 ms, elapsed = 108.235 ms.
Intrinsic tran analysis time:    CPU = 4.3459 s, elapsed = 4.42529 s.
Total time required for tran analysis `TmpRead-000_TmpRead': CPU = 4.46944 s, elapsed = 4.54899 s.
Time accumulated: CPU = 53.6637 s, elapsed = 54.0853 s.
Peak resident memory used = 97.6 Mbytes.


Notice from spectre during task `MDLControl'.
    169 notices suppressed.


Value of Exported Variables in this iteration of the Search loop ( iteration = 12 ) :
CurBL=0.000269675
TpRd=1.83198e-11

++++++++++++++++++++
TpRead = 2.81558e-10
++++++++++++++++++++

***************************************************************
Transient Analysis `TmpRead-000_TmpRead': time = (0 s -> 10 ns)
***************************************************************
DC simulation time: CPU = 80.572 ms, elapsed = 80.7021 ms.

Notice from spectre during transient analysis `TmpRead-000_TmpRead', during task `MDLControl'.
    No outputs were found. Loosening output filter criterion to `allpub'.


Opening the PSF file Cell.raw/TmpRead-000_TmpRead.tran.tran ...
Important parameter values:
    start = 0 s
    outputstart = 0 s
    stop = 10 ns
    step = 10 ps
    maxstep = 200 ps
    ic = all
    useprevic = no
    skipdc = no
    reltol = 1e-03
    abstol(V) = 1 uV
    abstol(I) = 1 pA
    temp = 27 C
    tnom = 27 C
    tempeffects = all
    errpreset = moderate
    method = traponly
    lteratio = 3.5
    relref = sigglobal
    cmin = 0 F
    gmin = 1 pS


Output and IC/nodeset summary:
                 save   297     (current)
                 save   1961    (voltage)

...
Zero diagonal found in Jacobian at `X55.X1.eISensBin2:bs_p1_bs_p2_flow' and `X55.X1.vISample:p'.
Zero diagonal found in Jacobian at `X55.X1.eISensBin2:bs_p1_bs_p2_flow' and `X55.X1.vISample:p'.
Zero diagonal found in Jacobian at `X55.X1.eISensBin2:bs_p1_bs_p2_flow' and `X55.X1.vISample:p'.
Zero diagonal found in Jacobian at `X55.X1.eISensBin2:bs_p1_bs_p2_flow' and `X55.X1.vISample:p'.
Zero diagonal found in Jacobian at `X55.X1.eISensBin2:bs_p1_bs_p2_flow' and `X55.X1.vISample:p'.
Zero diagonal found in Jacobian at `X55.X1.eISensBin2:bs_p1_bs_p2_flow' and `X55.X1.vISample:p'.
Zero diagonal found in Jacobian at `X55.X1.eISensBin2:bs_p1_bs_p2_flow' and `X55.X1.vISample:p'.
Zero diagonal found in Jacobian at `X17.X1.eISensBin2:bs_p1_bs_p2_flow' and `X17.X1.vISample:p'.
Zero diagonal found in Jacobian at `X17.X1.eISensBin2:bs_p1_bs_p2_flow' and `X17.X1.vISample:p'.
Zero diagonal found in Jacobian at `X17.X1.eISensBin2:bs_p1_bs_p2_flow' and `X17.X1.vISample:p'.
Zero diagonal found in Jacobian at `X17.X1.eISensBin2:bs_p1_bs_p2_flow' and `X17.X1.vISample:p'.
Zero diagonal found in Jacobian at `X17.X1.eISensBin2:bs_p1_bs_p2_flow' and `X17.X1.vISample:p'.
Zero diagonal found in Jacobian at `X17.X1.eISensBin2:bs_p1_bs_p2_flow' and `X17.X1.vISample:p'.

Notice from spectre at time = 280.558 ps during transient analysis `TmpRead-000_TmpRead', during task `MDLControl'.
    Newton iteration fails to converge at time = 280.558 ps step = 99.9855e-24 s.
        Disaster recovery algorithm is enabled to search for a converged solution.

....

Notice from spectre at time = 439.068 ps during transient analysis `TmpRead-000_TmpRead', during task `MDLControl'.
    Found trapezoidal ringing on node X56.X1.eBiStable:p.
Notice from spectre at time = 470.147 ps during transient analysis `TmpRead-000_TmpRead', during task `MDLControl'.
    Found trapezoidal ringing on node X56.X1.eBiStable:p.
Notice from spectre at time = 496.602 ps during transient analysis `TmpRead-000_TmpRead', during task `MDLControl'.
    Found trapezoidal ringing on node X56.X1.eBiStable:p.

.....

Notice from spectre at time = 518.499 ps during transient analysis `TmpRead-000_TmpRead', during task `MDLControl'.
    Found trapezoidal ringing on node X56.X1.eBiStable:p.
Notice from spectre at time = 539.154 ps during transient analysis `TmpRead-000_TmpRead', during task `MDLControl'.
    Found trapezoidal ringing on node X56.X1.eBiStable:p.
        Further occurrences of this notice will be suppressed.

........9........8........7........6........5........4........3........2........1........0
Number of accepted tran steps =             732

Notice from spectre during transient analysis `TmpRead-000_TmpRead', during task `MDLControl'.
    Trapezoidal ringing is detected during tran analysis.
        Please use method=trap for better results and performance.


Maximum value achieved for any signal of each quantity: 
V: V(X128.X1.nBiStable) = 10 V
I: I(X56.X1.eBiStable:p) = 19.95 A
If your circuit contains signals of the same quantity that are vastly different in size (such as high voltage circuitry combined with low voltage control circuitry), you should consider specifying global option `bin_relref=yes'.

~~~~~~~~~~~~~~~~~~~~~~~~~~~~~~~~~
Post-Transient Simulation Summary
~~~~~~~~~~~~~~~~~~~~~~~~~~~~~~~~~
   -   To further speed up simulation, consider
          add ++aps on command line
~~~~~~~~~~~~~~~~~~~~~~~~~~~~~~~~~


During simulation, the CPU load for active processors is :
        Spectre  0 (79.5 %)      1 (87.4 %)      2 (78.7 %)      3 (67.9 %)
        Other   
Initial condition solution time: CPU = 80.692 ms, elapsed = 80.852 ms.
Intrinsic tran analysis time:    CPU = 4.5859 s, elapsed = 4.61745 s.
Total time required for tran analysis `TmpRead-000_TmpRead': CPU = 4.68157 s, elapsed = 4.71361 s.
Time accumulated: CPU = 58.3865 s, elapsed = 58.8402 s.
Peak resident memory used = 97.6 Mbytes.


Notice from spectre during task `MDLControl'.
    160 notices suppressed.


Value of Exported Variables in this iteration of the Search loop ( iteration = 13 ) :
CurBL=0.000270237
TpRd=1.84419e-11

++++++++++++++++++++
TpRead = 2.81619e-10
++++++++++++++++++++

***************************************************************
Transient Analysis `TmpRead-000_TmpRead': time = (0 s -> 10 ns)
***************************************************************
DC simulation time: CPU = 98.802 ms, elapsed = 98.8312 ms.

Notice from spectre during transient analysis `TmpRead-000_TmpRead', during task `MDLControl'.
    No outputs were found. Loosening output filter criterion to `allpub'.


Opening the PSF file Cell.raw/TmpRead-000_TmpRead.tran.tran ...
Important parameter values:
    start = 0 s
    outputstart = 0 s
    stop = 10 ns
    step = 10 ps
    maxstep = 200 ps
    ic = all
    useprevic = no
    skipdc = no
    reltol = 1e-03
    abstol(V) = 1 uV
    abstol(I) = 1 pA
    temp = 27 C
    tnom = 27 C
    tempeffects = all
    errpreset = moderate
    method = traponly
    lteratio = 3.5
    relref = sigglobal
    cmin = 0 F
    gmin = 1 pS


Output and IC/nodeset summary:
                 save   297     (current)
                 save   1961    (voltage)

...

Notice from spectre at time = 305.5 ps during transient analysis `TmpRead-000_TmpRead', during task `MDLControl'.
    Found trapezoidal ringing on node X49.M_i_1:int_b.
Notice from spectre at time = 307.55 ps during transient analysis `TmpRead-000_TmpRead', during task `MDLControl'.
    Found trapezoidal ringing on node X49.M_i_1:int_b.
Notice from spectre at time = 308.575 ps during transient analysis `TmpRead-000_TmpRead', during task `MDLControl'.
    Found trapezoidal ringing on node X49.M_i_1:int_b.
Notice from spectre at time = 310.625 ps during transient analysis `TmpRead-000_TmpRead', during task `MDLControl'.
    Found trapezoidal ringing on node X49.M_i_1:int_b.
Notice from spectre at time = 311.65 ps during transient analysis `TmpRead-000_TmpRead', during task `MDLControl'.
    Found trapezoidal ringing on node X49.M_i_1:int_b.
        Further occurrences of this notice will be suppressed.

....
Zero diagonal found in Jacobian at `X69.X1.elim1:p' and `X69.X1.n50'.
....9
Zero diagonal found in Jacobian at `X8.X1.eISensBin2:bs_p1_bs_p2_flow' and `X8.X1.vISample:p'.
Zero diagonal found in Jacobian at `X8.X1.eISensBin2:bs_p1_bs_p2_flow' and `X8.X1.vISample:p'.
Zero diagonal found in Jacobian at `X8.X1.eISensBin2:bs_p1_bs_p2_flow' and `X8.X1.vISample:p'.
Zero diagonal found in Jacobian at `X8.X1.eISensBin2:bs_p1_bs_p2_flow' and `X8.X1.vISample:p'.
Zero diagonal found in Jacobian at `X8.X1.eISensBin2:bs_p1_bs_p2_flow' and `X8.X1.vISample:p'.
Zero diagonal found in Jacobian at `X8.X1.eISensBin2:bs_p1_bs_p2_flow' and `X8.X1.vISample:p'.
........8........7........6........5........4........3........2........1........0
Number of accepted tran steps =             749

Notice from spectre during transient analysis `TmpRead-000_TmpRead', during task `MDLControl'.
    Trapezoidal ringing is detected during tran analysis.
        Please use method=trap for better results and performance.


Maximum value achieved for any signal of each quantity: 
V: V(X128.X1.nBiStable) = 10 V
I: I(X56.X1.eBiStable:p) = 19.95 A
If your circuit contains signals of the same quantity that are vastly different in size (such as high voltage circuitry combined with low voltage control circuitry), you should consider specifying global option `bin_relref=yes'.

~~~~~~~~~~~~~~~~~~~~~~~~~~~~~~~~~
Post-Transient Simulation Summary
~~~~~~~~~~~~~~~~~~~~~~~~~~~~~~~~~
   -   To further speed up simulation, consider
          add ++aps on command line
~~~~~~~~~~~~~~~~~~~~~~~~~~~~~~~~~


During simulation, the CPU load for active processors is :
        Spectre  0 (80.7 %)      1 (88.1 %)      2 (74.3 %)      3 (64.2 %)
        Other   
Initial condition solution time: CPU = 98.963 ms, elapsed = 99.0028 ms.
Intrinsic tran analysis time:    CPU = 3.58121 s, elapsed = 3.60211 s.
Total time required for tran analysis `TmpRead-000_TmpRead': CPU = 3.69554 s, elapsed = 3.7166 s.
Time accumulated: CPU = 62.123 s (1m  2.1s), elapsed = 62.5979 s (1m  2.6s).
Peak resident memory used = 97.6 Mbytes.


Notice from spectre during task `MDLControl'.
    160 notices suppressed.


Value of Exported Variables in this iteration of the Search loop ( iteration = 14 ) :
CurBL=0.000269956
TpRd=1.83808e-11

++++++++++++++++++++
TpRead = 2.81589e-10
++++++++++++++++++++

***************************************************************
Transient Analysis `TmpRead-000_TmpRead': time = (0 s -> 10 ns)
***************************************************************
DC simulation time: CPU = 63.815 ms, elapsed = 63.8211 ms.

Notice from spectre during transient analysis `TmpRead-000_TmpRead', during task `MDLControl'.
    No outputs were found. Loosening output filter criterion to `allpub'.


Opening the PSF file Cell.raw/TmpRead-000_TmpRead.tran.tran ...
Important parameter values:
    start = 0 s
    outputstart = 0 s
    stop = 10 ns
    step = 10 ps
    maxstep = 200 ps
    ic = all
    useprevic = no
    skipdc = no
    reltol = 1e-03
    abstol(V) = 1 uV
    abstol(I) = 1 pA
    temp = 27 C
    tnom = 27 C
    tempeffects = all
    errpreset = moderate
    method = traponly
    lteratio = 3.5
    relref = sigglobal
    cmin = 0 F
    gmin = 1 pS


Output and IC/nodeset summary:
                 save   297     (current)
                 save   1961    (voltage)

...
Zero diagonal found in Jacobian at `X28.X1.eISensBin2:bs_p1_bs_p2_flow' and `X28.X1.vISample:p'.

Notice from spectre at time = 305.469 ps during transient analysis `TmpRead-000_TmpRead', during task `MDLControl'.
    Found trapezoidal ringing on node X53.M_i_1:int_b.
Notice from spectre at time = 307.519 ps during transient analysis `TmpRead-000_TmpRead', during task `MDLControl'.
    Found trapezoidal ringing on node X53.M_i_1:int_b.
Notice from spectre at time = 308.544 ps during transient analysis `TmpRead-000_TmpRead', during task `MDLControl'.
    Found trapezoidal ringing on node X53.M_i_1:int_b.
Notice from spectre at time = 310.594 ps during transient analysis `TmpRead-000_TmpRead', during task `MDLControl'.
    Found trapezoidal ringing on node X53.M_i_1:int_b.
Notice from spectre at time = 311.619 ps during transient analysis `TmpRead-000_TmpRead', during task `MDLControl'.
    Found trapezoidal ringing on node X53.M_i_1:int_b.
        Further occurrences of this notice will be suppressed.

........9
Zero diagonal found in Jacobian at `X72.X1.eISensBin2:bs_p1_bs_p2_flow' and `X72.X1.vISample:p'.
........8........7........6........5........4........3........2........1........0
Number of accepted tran steps =             730

Notice from spectre during transient analysis `TmpRead-000_TmpRead', during task `MDLControl'.
    Trapezoidal ringing is detected during tran analysis.
        Please use method=trap for better results and performance.


Maximum value achieved for any signal of each quantity: 
V: V(X128.X1.nBiStable) = 10 V
I: I(X56.X1.eBiStable:p) = 19.95 A
If your circuit contains signals of the same quantity that are vastly different in size (such as high voltage circuitry combined with low voltage control circuitry), you should consider specifying global option `bin_relref=yes'.

~~~~~~~~~~~~~~~~~~~~~~~~~~~~~~~~~
Post-Transient Simulation Summary
~~~~~~~~~~~~~~~~~~~~~~~~~~~~~~~~~
   -   To further speed up simulation, consider
          add ++aps on command line
~~~~~~~~~~~~~~~~~~~~~~~~~~~~~~~~~


During simulation, the CPU load for active processors is :
        Spectre  0 (81.8 %)      1 (88.8 %)      2 (70.3 %)      3 (61.0 %)
        Other   
Initial condition solution time: CPU = 63.924 ms, elapsed = 63.9479 ms.
Intrinsic tran analysis time:    CPU = 3.56182 s, elapsed = 3.58323 s.
Total time required for tran analysis `TmpRead-000_TmpRead': CPU = 3.64189 s, elapsed = 3.66346 s.
Time accumulated: CPU = 65.8067 s (1m  5.8s), elapsed = 66.3031 s (1m  6.3s).
Peak resident memory used = 97.6 Mbytes.


Notice from spectre during task `MDLControl'.
    158 notices suppressed.


Value of Exported Variables in this iteration of the Search loop ( iteration = 15 ) :
CurBL=0.000270096
TpRd=1.84114e-11

++++++++++++++++++++
TpRead = 2.81604e-10
++++++++++++++++++++

***************************************************************
Transient Analysis `TmpRead-000_TmpRead': time = (0 s -> 10 ns)
***************************************************************
DC simulation time: CPU = 61.207 ms, elapsed = 61.2109 ms.

Notice from spectre during transient analysis `TmpRead-000_TmpRead', during task `MDLControl'.
    No outputs were found. Loosening output filter criterion to `allpub'.


Opening the PSF file Cell.raw/TmpRead-000_TmpRead.tran.tran ...
Important parameter values:
    start = 0 s
    outputstart = 0 s
    stop = 10 ns
    step = 10 ps
    maxstep = 200 ps
    ic = all
    useprevic = no
    skipdc = no
    reltol = 1e-03
    abstol(V) = 1 uV
    abstol(I) = 1 pA
    temp = 27 C
    tnom = 27 C
    tempeffects = all
    errpreset = moderate
    method = traponly
    lteratio = 3.5
    relref = sigglobal
    cmin = 0 F
    gmin = 1 pS


Output and IC/nodeset summary:
                 save   297     (current)
                 save   1961    (voltage)

...
Zero diagonal found in Jacobian at `X118.X1.eISensBin2:bs_p1_bs_p2_flow' and `X118.X1.vISample:p'.

Notice from spectre at time = 305.484 ps during transient analysis `TmpRead-000_TmpRead', during task `MDLControl'.
    Found trapezoidal ringing on node X52.M_i_1:int_b.
Notice from spectre at time = 307.535 ps during transient analysis `TmpRead-000_TmpRead', during task `MDLControl'.
    Found trapezoidal ringing on node X52.M_i_1:int_b.
Notice from spectre at time = 308.56 ps during transient analysis `TmpRead-000_TmpRead', during task `MDLControl'.
    Found trapezoidal ringing on node X52.M_i_1:int_b.
Notice from spectre at time = 310.61 ps during transient analysis `TmpRead-000_TmpRead', during task `MDLControl'.
    Found trapezoidal ringing on node X52.M_i_1:int_b.
Notice from spectre at time = 311.635 ps during transient analysis `TmpRead-000_TmpRead', during task `MDLControl'.
    Found trapezoidal ringing on node X52.M_i_1:int_b.
        Further occurrences of this notice will be suppressed.

........9........8........7........6........5........4........3........2........1........0
Number of accepted tran steps =             718

Notice from spectre during transient analysis `TmpRead-000_TmpRead', during task `MDLControl'.
    Trapezoidal ringing is detected during tran analysis.
        Please use method=trap for better results and performance.


Maximum value achieved for any signal of each quantity: 
V: V(X128.X1.nBiStable) = 10 V
I: I(X56.X1.eBiStable:p) = 19.95 A
If your circuit contains signals of the same quantity that are vastly different in size (such as high voltage circuitry combined with low voltage control circuitry), you should consider specifying global option `bin_relref=yes'.

~~~~~~~~~~~~~~~~~~~~~~~~~~~~~~~~~
Post-Transient Simulation Summary
~~~~~~~~~~~~~~~~~~~~~~~~~~~~~~~~~
   -   To further speed up simulation, consider
          add ++aps on command line
~~~~~~~~~~~~~~~~~~~~~~~~~~~~~~~~~


During simulation, the CPU load for active processors is :
        Spectre  0 (82.7 %)      1 (89.3 %)      2 (67.0 %)      3 (58.3 %)
        Other   
Initial condition solution time: CPU = 61.319 ms, elapsed = 61.341 ms.
Intrinsic tran analysis time:    CPU = 3.4487 s, elapsed = 3.47635 s.
Total time required for tran analysis `TmpRead-000_TmpRead': CPU = 3.52468 s, elapsed = 3.55248 s.
Time accumulated: CPU = 69.3739 s (1m  9.4s), elapsed = 69.8982 s (1m  9.9s).
Peak resident memory used = 97.6 Mbytes.


Notice from spectre during task `MDLControl'.
    151 notices suppressed.


Value of Exported Variables in this iteration of the Search loop ( iteration = 16 ) :
CurBL=0.000270026
TpRd=1.83961e-11

++++++++++++++++++++
TpRead = 2.81612e-10
++++++++++++++++++++

***************************************************************
Transient Analysis `TmpRead-000_TmpRead': time = (0 s -> 10 ns)
***************************************************************
DC simulation time: CPU = 71.901 ms, elapsed = 71.907 ms.

Notice from spectre during transient analysis `TmpRead-000_TmpRead', during task `MDLControl'.
    No outputs were found. Loosening output filter criterion to `allpub'.


Opening the PSF file Cell.raw/TmpRead-000_TmpRead.tran.tran ...
Important parameter values:
    start = 0 s
    outputstart = 0 s
    stop = 10 ns
    step = 10 ps
    maxstep = 200 ps
    ic = all
    useprevic = no
    skipdc = no
    reltol = 1e-03
    abstol(V) = 1 uV
    abstol(I) = 1 pA
    temp = 27 C
    tnom = 27 C
    tempeffects = all
    errpreset = moderate
    method = traponly
    lteratio = 3.5
    relref = sigglobal
    cmin = 0 F
    gmin = 1 pS


Output and IC/nodeset summary:
                 save   297     (current)
                 save   1961    (voltage)

...
Zero diagonal found in Jacobian at `X109.X1.eISensBin2:bs_p1_bs_p2_flow' and `X109.X1.vISample:p'.
Zero diagonal found in Jacobian at `X109.X1.eISensBin2:bs_p1_bs_p2_flow' and `X109.X1.vISample:p'.
Zero diagonal found in Jacobian at `X109.X1.eISensBin2:bs_p1_bs_p2_flow' and `X109.X1.vISample:p'.
Zero diagonal found in Jacobian at `X109.X1.eISensBin2:bs_p1_bs_p2_flow' and `X109.X1.vISample:p'.
Zero diagonal found in Jacobian at `X109.X1.eISensBin2:bs_p1_bs_p2_flow' and `X109.X1.vISample:p'.
Zero diagonal found in Jacobian at `X109.X1.eISensBin2:bs_p1_bs_p2_flow' and `X109.X1.vISample:p'.
Zero diagonal found in Jacobian at `X105.X1.eISensBin2:bs_p1_bs_p2_flow' and `X105.X1.vISample:p'.

Notice from spectre at time = 305.488 ps during transient analysis `TmpRead-000_TmpRead', during task `MDLControl'.
    Found trapezoidal ringing on node X52.M_i_1:int_b.
Notice from spectre at time = 307.538 ps during transient analysis `TmpRead-000_TmpRead', during task `MDLControl'.
    Found trapezoidal ringing on node X52.M_i_1:int_b.
Notice from spectre at time = 308.562 ps during transient analysis `TmpRead-000_TmpRead', during task `MDLControl'.
    Found trapezoidal ringing on node X52.M_i_1:int_b.
Notice from spectre at time = 310.612 ps during transient analysis `TmpRead-000_TmpRead', during task `MDLControl'.
    Found trapezoidal ringing on node X52.M_i_1:int_b.
Notice from spectre at time = 311.637 ps during transient analysis `TmpRead-000_TmpRead', during task `MDLControl'.
    Found trapezoidal ringing on node X52.M_i_1:int_b.
        Further occurrences of this notice will be suppressed.

........9........8........7........6........5........4........3........2........1........0
Number of accepted tran steps =             726

Notice from spectre during transient analysis `TmpRead-000_TmpRead', during task `MDLControl'.
    Trapezoidal ringing is detected during tran analysis.
        Please use method=trap for better results and performance.


Maximum value achieved for any signal of each quantity: 
V: V(X128.X1.nBiStable) = 10 V
I: I(X56.X1.eBiStable:p) = 19.72 A
If your circuit contains signals of the same quantity that are vastly different in size (such as high voltage circuitry combined with low voltage control circuitry), you should consider specifying global option `bin_relref=yes'.

~~~~~~~~~~~~~~~~~~~~~~~~~~~~~~~~~
Post-Transient Simulation Summary
~~~~~~~~~~~~~~~~~~~~~~~~~~~~~~~~~
   -   To further speed up simulation, consider
          add ++aps on command line
~~~~~~~~~~~~~~~~~~~~~~~~~~~~~~~~~


During simulation, the CPU load for active processors is :
        Spectre  0 (83.5 %)      1 (89.8 %)      2 (64.0 %)      3 (55.6 %)
        Other   
Initial condition solution time: CPU = 72.036 ms, elapsed = 72.063 ms.
Intrinsic tran analysis time:    CPU = 3.46237 s, elapsed = 3.47593 s.
Total time required for tran analysis `TmpRead-000_TmpRead': CPU = 3.54968 s, elapsed = 3.5634 s.
Time accumulated: CPU = 72.9644 s (1m  13.0s), elapsed = 73.5025 s (1m  13.5s).
Peak resident memory used = 97.6 Mbytes.


Notice from spectre during task `MDLControl'.
    152 notices suppressed.


Value of Exported Variables in this iteration of the Search loop ( iteration = 17 ) :
CurBL=0.000269991
TpRd=1.83885e-11

++++++++++++++++++++
TpRead = 2.81608e-10
++++++++++++++++++++

***************************************************************
Transient Analysis `TmpRead-000_TmpRead': time = (0 s -> 10 ns)
***************************************************************
DC simulation time: CPU = 91.063 ms, elapsed = 91.069 ms.

Notice from spectre during transient analysis `TmpRead-000_TmpRead', during task `MDLControl'.
    No outputs were found. Loosening output filter criterion to `allpub'.


Opening the PSF file Cell.raw/TmpRead-000_TmpRead.tran.tran ...
Important parameter values:
    start = 0 s
    outputstart = 0 s
    stop = 10 ns
    step = 10 ps
    maxstep = 200 ps
    ic = all
    useprevic = no
    skipdc = no
    reltol = 1e-03
    abstol(V) = 1 uV
    abstol(I) = 1 pA
    temp = 27 C
    tnom = 27 C
    tempeffects = all
    errpreset = moderate
    method = traponly
    lteratio = 3.5
    relref = sigglobal
    cmin = 0 F
    gmin = 1 pS


Output and IC/nodeset summary:
                 save   297     (current)
                 save   1961    (voltage)

...
Zero diagonal found in Jacobian at `X98.X1.eISensBin2:bs_p1_bs_p2_flow' and `X98.X1.vISample:p'.

Notice from spectre at time = 305.488 ps during transient analysis `TmpRead-000_TmpRead', during task `MDLControl'.
    Found trapezoidal ringing on node X49.M_i_1:int_b.
Notice from spectre at time = 307.538 ps during transient analysis `TmpRead-000_TmpRead', during task `MDLControl'.
    Found trapezoidal ringing on node X49.M_i_1:int_b.
Notice from spectre at time = 308.563 ps during transient analysis `TmpRead-000_TmpRead', during task `MDLControl'.
    Found trapezoidal ringing on node X49.M_i_1:int_b.
Notice from spectre at time = 310.613 ps during transient analysis `TmpRead-000_TmpRead', during task `MDLControl'.
    Found trapezoidal ringing on node X49.M_i_1:int_b.
Notice from spectre at time = 311.638 ps during transient analysis `TmpRead-000_TmpRead', during task `MDLControl'.
    Found trapezoidal ringing on node X49.M_i_1:int_b.
        Further occurrences of this notice will be suppressed.

........9........8........7........6........5........4........3........2........1........0
Number of accepted tran steps =             718

Notice from spectre during transient analysis `TmpRead-000_TmpRead', during task `MDLControl'.
    Trapezoidal ringing is detected during tran analysis.
        Please use method=trap for better results and performance.


Maximum value achieved for any signal of each quantity: 
V: V(X128.X1.nBiStable) = 10 V
I: I(X56.X1.eBiStable:p) = 19.95 A
If your circuit contains signals of the same quantity that are vastly different in size (such as high voltage circuitry combined with low voltage control circuitry), you should consider specifying global option `bin_relref=yes'.

~~~~~~~~~~~~~~~~~~~~~~~~~~~~~~~~~
Post-Transient Simulation Summary
~~~~~~~~~~~~~~~~~~~~~~~~~~~~~~~~~
   -   To further speed up simulation, consider
          add ++aps on command line
~~~~~~~~~~~~~~~~~~~~~~~~~~~~~~~~~


During simulation, the CPU load for active processors is :
        Spectre  0 (84.3 %)      1 (90.3 %)      2 (61.2 %)      3 (53.2 %)
        Other   
Initial condition solution time: CPU = 91.194 ms, elapsed = 91.2302 ms.
Intrinsic tran analysis time:    CPU = 3.43722 s, elapsed = 3.45976 s.
Total time required for tran analysis `TmpRead-000_TmpRead': CPU = 3.54404 s, elapsed = 3.56675 s.
Time accumulated: CPU = 76.5508 s (1m  16.6s), elapsed = 77.1116 s (1m  17.1s).
Peak resident memory used = 97.6 Mbytes.


Notice from spectre during task `MDLControl'.
    151 notices suppressed.


Value of Exported Variables in this iteration of the Search loop ( iteration = 18 ) :
CurBL=0.000270009
TpRd=1.83923e-11

+++++++++++++++++++
TpRead = 2.8161e-10
+++++++++++++++++++

[...]
        pwr = -0 W

Instance: X34.X1.vISample of MTJT
Model: vsource
Primitive: vsource
          p : V(NM34) = 0 V
          n : V(X34.X1.nVCR1) = 0 V
          v = 0 V
          i = -970.542e-21 A
        pwr = -0 W

Instance: X35.X1.vISample of MTJT
Model: vsource
Primitive: vsource
          p : V(NM35) = 0 V
          n : V(X35.X1.nVCR1) = 0 V
          v = 0 V
          i = -970.542e-21 A
        pwr = -0 W

Instance: X36.X1.vISample of MTJT
Model: vsource
Primitive: vsource
          p : V(NM36) = 0 V
          n : V(X36.X1.nVCR1) = 0 V
          v = 0 V
          i = -970.542e-21 A
        pwr = -0 W

Instance: X37.X1.vISample of MTJT
Model: vsource
Primitive: vsource
          p : V(NM37) = 0 V
          n : V(X37.X1.nVCR1) = 0 V
          v = 0 V
          i = -970.542e-21 A
        pwr = -0 W

Instance: X38.X1.vISample of MTJT
Model: vsource
Primitive: vsource
          p : V(NM38) = 0 V
          n : V(X38.X1.nVCR1) = 0 V
          v = 0 V
          i = -970.542e-21 A
        pwr = -0 W

Instance: X39.X1.vISample of MTJT
Model: vsource
Primitive: vsource
          p : V(NM39) = 0 V
          n : V(X39.X1.nVCR1) = 0 V
          v = 0 V
          i = -970.542e-21 A
        pwr = -0 W

Instance: X40.X1.vISample of MTJT
Model: vsource
Primitive: vsource
          p : V(NM40) = 0 V
          n : V(X40.X1.nVCR1) = 0 V
          v = 0 V
          i = 0 A
        pwr = 0 W

Instance: X41.X1.vISample of MTJT
Model: vsource
Primitive: vsource
          p : V(NM41) = 0 V
          n : V(X41.X1.nVCR1) = 0 V
          v = 0 V
          i = -970.542e-21 A
        pwr = -0 W

Instance: X42.X1.vISample of MTJT
Model: vsource
Primitive: vsource
          p : V(NM42) = 0 V
          n : V(X42.X1.nVCR1) = 0 V
          v = 0 V
          i = -970.542e-21 A
        pwr = -0 W

Instance: X43.X1.vISample of MTJT
Model: vsource
Primitive: vsource
          p : V(NM43) = 0 V
          n : V(X43.X1.nVCR1) = 0 V
          v = 0 V
          i = -970.542e-21 A
        pwr = -0 W

Instance: X44.X1.vISample of MTJT
Model: vsource
Primitive: vsource
          p : V(NM44) = 0 V
          n : V(X44.X1.nVCR1) = 0 V
          v = 0 V
          i = -970.542e-21 A
        pwr = -0 W

Instance: X45.X1.vISample of MTJT
Model: vsource
Primitive: vsource
          p : V(NM45) = 0 V
          n : V(X45.X1.nVCR1) = 0 V
          v = 0 V
          i = -970.542e-21 A
        pwr = -0 W

Instance: X46.X1.vISample of MTJT
Model: vsource
Primitive: vsource
          p : V(NM46) = 0 V
          n : V(X46.X1.nVCR1) = 0 V
          v = 0 V
          i = -970.542e-21 A
        pwr = -0 W

Instance: X47.X1.vISample of MTJT
Model: vsource
Primitive: vsource
          p : V(NM47) = 0 V
          n : V(X47.X1.nVCR1) = 0 V
          v = 0 V
          i = -970.542e-21 A
        pwr = -0 W

Instance: X48.X1.vISample of MTJT
Model: vsource
Primitive: vsource
          p : V(NM48) = 0 V
          n : V(X48.X1.nVCR1) = 0 V
          v = 0 V
          i = -970.542e-21 A
        pwr = -0 W

Instance: X49.X1.vISample of MTJT
Model: vsource
Primitive: vsource
          p : V(NM49) = 0 V
          n : V(X49.X1.nVCR1) = 0 V
          v = 0 V
          i = -970.542e-21 A
        pwr = -0 W

Instance: X50.X1.vISample of MTJT
Model: vsource
Primitive: vsource
          p : V(NM50) = 0 V
          n : V(X50.X1.nVCR1) = 0 V
          v = 0 V
          i = -970.542e-21 A
        pwr = -0 W

Instance: X51.X1.vISample of MTJT
Model: vsource
Primitive: vsource
          p : V(NM51) = 0 V
          n : V(X51.X1.nVCR1) = 0 V
          v = 0 V
          i = -970.542e-21 A
        pwr = -0 W

Instance: X52.X1.vISample of MTJT
Model: vsource
Primitive: vsource
          p : V(NM52) = 0 V
          n : V(X52.X1.nVCR1) = 0 V
          v = 0 V
          i = -970.542e-21 A
        pwr = -0 W

Instance: X53.X1.vISample of MTJT
Model: vsource
Primitive: vsource
          p : V(NM53) = 0 V
          n : V(X53.X1.nVCR1) = 0 V
          v = 0 V
          i = -970.542e-21 A
        pwr = -0 W

Instance: X54.X1.vISample of MTJT
Model: vsource
Primitive: vsource
          p : V(NM54) = 0 V
          n : V(X54.X1.nVCR1) = 0 V
          v = 0 V
          i = -970.542e-21 A
        pwr = -0 W

Instance: X55.X1.vISample of MTJT
Model: vsource
Primitive: vsource
          p : V(NM55) = 0 V
          n : V(X55.X1.nVCR1) = 0 V
          v = 0 V
          i = -970.542e-21 A
        pwr = -0 W

Instance: X56.X1.vISample of MTJT
Model: vsource
Primitive: vsource
          p : V(NM56) = 0 V
          n : V(X56.X1.nVCR1) = 0 V
          v = 0 V
          i = 0 A
        pwr = 0 W

Instance: X57.X1.vISample of MTJT
Model: vsource
Primitive: vsource
          p : V(NM57) = 0 V
          n : V(X57.X1.nVCR1) = 0 V
          v = 0 V
          i = -970.542e-21 A
        pwr = -0 W

Instance: X58.X1.vISample of MTJT
Model: vsource
Primitive: vsource
          p : V(NM58) = 0 V
          n : V(X58.X1.nVCR1) = 0 V
          v = 0 V
          i = -970.542e-21 A
        pwr = -0 W

Instance: X59.X1.vISample of MTJT
Model: vsource
Primitive: vsource
          p : V(NM59) = 0 V
          n : V(X59.X1.nVCR1) = 0 V
          v = 0 V
          i = -970.542e-21 A
        pwr = -0 W

Instance: X60.X1.vISample of MTJT
Model: vsource
Primitive: vsource
          p : V(NM60) = 0 V
          n : V(X60.X1.nVCR1) = 0 V
          v = 0 V
          i = -970.542e-21 A
        pwr = -0 W

Instance: X61.X1.vISample of MTJT
Model: vsource
Primitive: vsource
          p : V(NM61) = 0 V
          n : V(X61.X1.nVCR1) = 0 V
          v = 0 V
          i = -970.542e-21 A
        pwr = -0 W

Instance: X62.X1.vISample of MTJT
Model: vsource
Primitive: vsource
          p : V(NM62) = 0 V
          n : V(X62.X1.nVCR1) = 0 V
          v = 0 V
          i = -970.542e-21 A
        pwr = -0 W

Instance: X63.X1.vISample of MTJT
Model: vsource
Primitive: vsource
          p : V(NM63) = 0 V
          n : V(X63.X1.nVCR1) = 0 V
          v = 0 V
          i = -970.542e-21 A
        pwr = -0 W

Instance: X64.X1.vISample of MTJT
Model: vsource
Primitive: vsource
          p : V(NM64) = 0 V
          n : V(X64.X1.nVCR1) = 0 V
          v = 0 V
          i = -970.542e-21 A
        pwr = -0 W

Instance: X65.X1.vISample of MTJT
Model: vsource
Primitive: vsource
          p : V(NM65) = 0 V
          n : V(X65.X1.nVCR1) = 0 V
          v = 0 V
          i = -970.542e-21 A
        pwr = -0 W

Instance: X66.X1.vISample of MTJT
Model: vsource
Primitive: vsource
          p : V(NM66) = 0 V
          n : V(X66.X1.nVCR1) = 0 V
          v = 0 V
          i = -970.542e-21 A
        pwr = -0 W

Instance: X67.X1.vISample of MTJT
Model: vsource
Primitive: vsource
          p : V(NM67) = 0 V
          n : V(X67.X1.nVCR1) = 0 V
          v = 0 V
          i = -970.542e-21 A
        pwr = -0 W

Instance: X68.X1.vISample of MTJT
Model: vsource
Primitive: vsource
          p : V(NM68) = 0 V
          n : V(X68.X1.nVCR1) = 0 V
          v = 0 V
          i = -970.542e-21 A
        pwr = -0 W

Instance: X69.X1.vISample of MTJT
Model: vsource
Primitive: vsource
          p : V(NM69) = 0 V
          n : V(X69.X1.nVCR1) = 0 V
          v = 0 V
          i = -970.542e-21 A
        pwr = -0 W

Instance: X70.X1.vISample of MTJT
Model: vsource
Primitive: vsource
          p : V(NM70) = 0 V
          n : V(X70.X1.nVCR1) = 0 V
          v = 0 V
          i = -970.542e-21 A
        pwr = -0 W

Instance: X71.X1.vISample of MTJT
Model: vsource
Primitive: vsource
          p : V(NM71) = 0 V
          n : V(X71.X1.nVCR1) = 0 V
          v = 0 V
          i = -970.542e-21 A
        pwr = -0 W

Instance: X72.X1.vISample of MTJT
Model: vsource
Primitive: vsource
          p : V(NM72) = 0 V
          n : V(X72.X1.nVCR1) = 0 V
          v = 0 V
          i = 0 A
        pwr = 0 W

Instance: X73.X1.vISample of MTJT
Model: vsource
Primitive: vsource
          p : V(NM73) = 0 V
          n : V(X73.X1.nVCR1) = 0 V
          v = 0 V
          i = -970.542e-21 A
        pwr = -0 W

Instance: X74.X1.vISample of MTJT
Model: vsource
Primitive: vsource
          p : V(NM74) = 0 V
          n : V(X74.X1.nVCR1) = 0 V
          v = 0 V
          i = -970.542e-21 A
        pwr = -0 W

Instance: X75.X1.vISample of MTJT
Model: vsource
Primitive: vsource
          p : V(NM75) = 0 V
          n : V(X75.X1.nVCR1) = 0 V
          v = 0 V
          i = -970.542e-21 A
        pwr = -0 W

Instance: X76.X1.vISample of MTJT
Model: vsource
Primitive: vsource
          p : V(NM76) = 0 V
          n : V(X76.X1.nVCR1) = 0 V
          v = 0 V
          i = -970.542e-21 A
        pwr = -0 W

Instance: X77.X1.vISample of MTJT
Model: vsource
Primitive: vsource
          p : V(NM77) = 0 V
          n : V(X77.X1.nVCR1) = 0 V
          v = 0 V
          i = -970.542e-21 A
        pwr = -0 W

Instance: X78.X1.vISample of MTJT
Model: vsource
Primitive: vsource
          p : V(NM78) = 0 V
          n : V(X78.X1.nVCR1) = 0 V
          v = 0 V
          i = -970.542e-21 A
        pwr = -0 W

Instance: X79.X1.vISample of MTJT
Model: vsource
Primitive: vsource
          p : V(NM79) = 0 V
          n : V(X79.X1.nVCR1) = 0 V
          v = 0 V
          i = -970.542e-21 A
        pwr = -0 W

Instance: X80.X1.vISample of MTJT
Model: vsource
Primitive: vsource
          p : V(NM80) = 0 V
          n : V(X80.X1.nVCR1) = 0 V
          v = 0 V
          i = -970.542e-21 A
        pwr = -0 W

Instance: X81.X1.vISample of MTJT
Model: vsource
Primitive: vsource
          p : V(NM81) = 0 V
          n : V(X81.X1.nVCR1) = 0 V
          v = 0 V
          i = -970.542e-21 A
        pwr = -0 W

Instance: X82.X1.vISample of MTJT
Model: vsource
Primitive: vsource
          p : V(NM82) = 0 V
          n : V(X82.X1.nVCR1) = 0 V
          v = 0 V
          i = -970.542e-21 A
        pwr = -0 W

Instance: X83.X1.vISample of MTJT
Model: vsource
Primitive: vsource
          p : V(NM83) = 0 V
          n : V(X83.X1.nVCR1) = 0 V
          v = 0 V
          i = -970.542e-21 A
        pwr = -0 W

Instance: X84.X1.vISample of MTJT
Model: vsource
Primitive: vsource
          p : V(NM84) = 0 V
          n : V(X84.X1.nVCR1) = 0 V
          v = 0 V
          i = -970.542e-21 A
        pwr = -0 W

Instance: X85.X1.vISample of MTJT
Model: vsource
Primitive: vsource
          p : V(NM85) = 0 V
          n : V(X85.X1.nVCR1) = 0 V
          v = 0 V
          i = -970.542e-21 A
        pwr = -0 W

Instance: X86.X1.vISample of MTJT
Model: vsource
Primitive: vsource
          p : V(NM86) = 0 V
          n : V(X86.X1.nVCR1) = 0 V
          v = 0 V
          i = -970.542e-21 A
        pwr = -0 W

Instance: X87.X1.vISample of MTJT
Model: vsource
Primitive: vsource
          p : V(NM87) = 0 V
          n : V(X87.X1.nVCR1) = 0 V
          v = 0 V
          i = -970.542e-21 A
        pwr = -0 W

Instance: X88.X1.vISample of MTJT
Model: vsource
Primitive: vsource
          p : V(NM88) = 0 V
          n : V(X88.X1.nVCR1) = 0 V
          v = 0 V
          i = 0 A
        pwr = 0 W

Instance: X89.X1.vISample of MTJT
Model: vsource
Primitive: vsource
          p : V(NM89) = 0 V
          n : V(X89.X1.nVCR1) = 0 V
          v = 0 V
          i = -970.542e-21 A
        pwr = -0 W

Instance: X90.X1.vISample of MTJT
Model: vsource
Primitive: vsource
          p : V(NM90) = 0 V
          n : V(X90.X1.nVCR1) = 0 V
          v = 0 V
          i = -970.542e-21 A
        pwr = -0 W

Instance: X91.X1.vISample of MTJT
Model: vsource
Primitive: vsource
          p : V(NM91) = 0 V
          n : V(X91.X1.nVCR1) = 0 V
          v = 0 V
          i = -970.542e-21 A
        pwr = -0 W

Instance: X92.X1.vISample of MTJT
Model: vsource
Primitive: vsource
          p : V(NM92) = 0 V
          n : V(X92.X1.nVCR1) = 0 V
          v = 0 V
          i = -970.542e-21 A
        pwr = -0 W

Instance: X93.X1.vISample of MTJT
Model: vsource
Primitive: vsource
          p : V(NM93) = 0 V
          n : V(X93.X1.nVCR1) = 0 V
          v = 0 V
          i = -970.542e-21 A
        pwr = -0 W

Instance: X94.X1.vISample of MTJT
Model: vsource
Primitive: vsource
          p : V(NM94) = 0 V
          n : V(X94.X1.nVCR1) = 0 V
          v = 0 V
          i = -970.542e-21 A
        pwr = -0 W

Instance: X95.X1.vISample of MTJT
Model: vsource
Primitive: vsource
          p : V(NM95) = 0 V
          n : V(X95.X1.nVCR1) = 0 V
          v = 0 V
          i = -970.542e-21 A
        pwr = -0 W

Instance: X96.X1.vISample of MTJT
Model: vsource
Primitive: vsource
          p : V(NM96) = 0 V
          n : V(X96.X1.nVCR1) = 0 V
          v = 0 V
          i = -970.542e-21 A
        pwr = -0 W

Instance: X97.X1.vISample of MTJT
Model: vsource
Primitive: vsource
          p : V(NM97) = 0 V
          n : V(X97.X1.nVCR1) = 0 V
          v = 0 V
          i = -970.542e-21 A
        pwr = -0 W

Instance: X98.X1.vISample of MTJT
Model: vsource
Primitive: vsource
          p : V(NM98) = 0 V
          n : V(X98.X1.nVCR1) = 0 V
          v = 0 V
          i = -970.542e-21 A
        pwr = -0 W

Instance: X99.X1.vISample of MTJT
Model: vsource
Primitive: vsource
          p : V(NM99) = 0 V
          n : V(X99.X1.nVCR1) = 0 V
          v = 0 V
          i = -970.542e-21 A
        pwr = -0 W

Instance: X100.X1.vISample of MTJT
Model: vsource
Primitive: vsource
          p : V(NM100) = 0 V
          n : V(X100.X1.nVCR1) = 0 V
          v = 0 V
          i = -970.542e-21 A
        pwr = -0 W

Instance: X101.X1.vISample of MTJT
Model: vsource
Primitive: vsource
          p : V(NM101) = 0 V
          n : V(X101.X1.nVCR1) = 0 V
          v = 0 V
          i = -970.542e-21 A
        pwr = -0 W

Instance: X102.X1.vISample of MTJT
Model: vsource
Primitive: vsource
          p : V(NM102) = 0 V
          n : V(X102.X1.nVCR1) = 0 V
          v = 0 V
          i = -970.542e-21 A
        pwr = -0 W

Instance: X103.X1.vISample of MTJT
Model: vsource
Primitive: vsource
          p : V(NM103) = 0 V
          n : V(X103.X1.nVCR1) = 0 V
          v = 0 V
          i = -970.542e-21 A
        pwr = -0 W

Instance: X104.X1.vISample of MTJT
Model: vsource
Primitive: vsource
          p : V(NM104) = 0 V
          n : V(X104.X1.nVCR1) = 0 V
          v = 0 V
          i = 0 A
        pwr = 0 W

Instance: X105.X1.vISample of MTJT
Model: vsource
Primitive: vsource
          p : V(NM105) = 0 V
          n : V(X105.X1.nVCR1) = 0 V
          v = 0 V
          i = -970.542e-21 A
        pwr = -0 W

Instance: X106.X1.vISample of MTJT
Model: vsource
Primitive: vsource
          p : V(NM106) = 0 V
          n : V(X106.X1.nVCR1) = 0 V
          v = 0 V
          i = -970.542e-21 A
        pwr = -0 W

Instance: X107.X1.vISample of MTJT
Model: vsource
Primitive: vsource
          p : V(NM107) = 0 V
          n : V(X107.X1.nVCR1) = 0 V
          v = 0 V
          i = -970.542e-21 A
        pwr = -0 W

Instance: X108.X1.vISample of MTJT
Model: vsource
Primitive: vsource
          p : V(NM108) = 0 V
          n : V(X108.X1.nVCR1) = 0 V
          v = 0 V
          i = -970.542e-21 A
        pwr = -0 W

Instance: X109.X1.vISample of MTJT
Model: vsource
Primitive: vsource
          p : V(NM109) = 0 V
          n : V(X109.X1.nVCR1) = 0 V
          v = 0 V
          i = -970.542e-21 A
        pwr = -0 W

Instance: X110.X1.vISample of MTJT
Model: vsource
Primitive: vsource
          p : V(NM110) = 0 V
          n : V(X110.X1.nVCR1) = 0 V
          v = 0 V
          i = -970.542e-21 A
        pwr = -0 W

Instance: X111.X1.vISample of MTJT
Model: vsource
Primitive: vsource
          p : V(NM111) = 0 V
          n : V(X111.X1.nVCR1) = 0 V
          v = 0 V
          i = -970.542e-21 A
        pwr = -0 W

Instance: X112.X1.vISample of MTJT
Model: vsource
Primitive: vsource
          p : V(NM112) = 0 V
          n : V(X112.X1.nVCR1) = 0 V
          v = 0 V
          i = -970.542e-21 A
        pwr = -0 W

Instance: X113.X1.vISample of MTJT
Model: vsource
Primitive: vsource
          p : V(NM113) = 0 V
          n : V(X113.X1.nVCR1) = 0 V
          v = 0 V
          i = -970.542e-21 A
        pwr = -0 W

Instance: X114.X1.vISample of MTJT
Model: vsource
Primitive: vsource
          p : V(NM114) = 0 V
          n : V(X114.X1.nVCR1) = 0 V
          v = 0 V
          i = -970.542e-21 A
        pwr = -0 W

Instance: X115.X1.vISample of MTJT
Model: vsource
Primitive: vsource
          p : V(NM115) = 0 V
          n : V(X115.X1.nVCR1) = 0 V
          v = 0 V
          i = -970.542e-21 A
        pwr = -0 W

Instance: X116.X1.vISample of MTJT
Model: vsource
Primitive: vsource
          p : V(NM116) = 0 V
          n : V(X116.X1.nVCR1) = 0 V
          v = 0 V
          i = -970.542e-21 A
        pwr = -0 W

Instance: X117.X1.vISample of MTJT
Model: vsource
Primitive: vsource
          p : V(NM117) = 0 V
          n : V(X117.X1.nVCR1) = 0 V
          v = 0 V
          i = -970.542e-21 A
        pwr = -0 W

Instance: X118.X1.vISample of MTJT
Model: vsource
Primitive: vsource
          p : V(NM118) = 0 V
          n : V(X118.X1.nVCR1) = 0 V
          v = 0 V
          i = -970.542e-21 A
        pwr = -0 W

Instance: X119.X1.vISample of MTJT
Model: vsource
Primitive: vsource
          p : V(NM119) = 0 V
          n : V(X119.X1.nVCR1) = 0 V
          v = 0 V
          i = -970.542e-21 A
        pwr = -0 W

Instance: X120.X1.vISample of MTJT
Model: vsource
Primitive: vsource
          p : V(NM120) = 0 V
          n : V(X120.X1.nVCR1) = 0 V
          v = 0 V
          i = 0 A
        pwr = 0 W

Instance: X121.X1.vISample of MTJT
Model: vsource
Primitive: vsource
          p : V(NM121) = 0 V
          n : V(X121.X1.nVCR1) = 0 V
          v = 0 V
          i = -970.542e-21 A
        pwr = -0 W

Instance: X122.X1.vISample of MTJT
Model: vsource
Primitive: vsource
          p : V(NM122) = 0 V
          n : V(X122.X1.nVCR1) = 0 V
          v = 0 V
          i = -970.542e-21 A
        pwr = -0 W

Instance: X123.X1.vISample of MTJT
Model: vsource
Primitive: vsource
          p : V(NM123) = 0 V
          n : V(X123.X1.nVCR1) = 0 V
          v = 0 V
          i = -970.542e-21 A
        pwr = -0 W

Instance: X124.X1.vISample of MTJT
Model: vsource
Primitive: vsource
          p : V(NM124) = 0 V
          n : V(X124.X1.nVCR1) = 0 V
          v = 0 V
          i = -970.542e-21 A
        pwr = -0 W

Instance: X125.X1.vISample of MTJT
Model: vsource
Primitive: vsource
          p : V(NM125) = 0 V
          n : V(X125.X1.nVCR1) = 0 V
          v = 0 V
          i = -970.542e-21 A
        pwr = -0 W

Instance: X126.X1.vISample of MTJT
Model: vsource
Primitive: vsource
          p : V(NM126) = 0 V
          n : V(X126.X1.nVCR1) = 0 V
          v = 0 V
          i = -970.542e-21 A
        pwr = -0 W

Instance: X127.X1.vISample of MTJT
Model: vsource
Primitive: vsource
          p : V(NM127) = 0 V
          n : V(X127.X1.nVCR1) = 0 V
          v = 0 V
          i = -970.542e-21 A
        pwr = -0 W

Instance: X128.X1.vISample of MTJT
Model: vsource
Primitive: vsource
          p : V(NM128) = 0 V
          n : V(X128.X1.nVCR1) = 0 V
          v = 0 V
          i = -970.542e-21 A
        pwr = -0 W

Maximum and minimum parameter values for vsource: 
            max v = 1.6 V on Vvdd
            min v = 0 V on Vbl1
            max i = 5.58262 uA on Vsl7
            min i = -2.9774 uA on Vwl1
          min |i| = 0 A on Vbl1en
          max pwr = 0 W on Vbl1
          min pwr = -4.76384 uW on Vwl1


Total Power Dissipation = 71.4575 uW.


Convergence achieved in 8 iterations.
DC simulation time: CPU = 386.364 ms, elapsed = 408.109 ms.
Total time required for dc analysis `LeakStat': CPU = 386.543 ms, elapsed = 408.291 ms.
Time accumulated: CPU = 183.763 s (3m  3.8s), elapsed = 185.137 s (3m  5.1s).
Peak resident memory used = 108 Mbytes.


Aggregate audit (9:06:13 PM, Mon Mar 22, 2021):
Time used: CPU = 184 s (3m  3.8s), elapsed = 185 s (3m  5.2s), util. = 99.2%.
Time spent in licensing: elapsed = 22.3 ms.
Peak memory used = 108 Mbytes.
Simulation started at: 9:03:08 PM, Mon Mar 22, 2021, ended at: 9:06:13 PM, Mon Mar 22, 2021, with elapsed time (wall clock): 185 s (3m  5.2s).
spectre completes with 0 errors, 1 warning, and 383 notices.
