
Spectre (R) Circuit Simulator
Version 16.1.0.673.isr14 64bit -- 30 Mar 2018
Copyright (C) 1989-2018 Cadence Design Systems, Inc. All rights reserved worldwide. Cadence and Spectre are registered trademarks of Cadence Design Systems, Inc. All others are the property of their respective holders.

Includes RSA BSAFE(R) Cryptographic or Security Protocol Software from RSA Security, Inc.

User: brunozimmer   Host: itacolomi.lapsi   HostID: 7F0100   PID: 13032
Memory  available: 13.9152 GB  physical: 33.7036 GB
Linux   : CentOS Linux release 7.9.2009 (Core)
CPU Type: Intel(R) Xeon(R) CPU E3-1220 V2 @ 3.10GHz
All processors running at 2909.8 MHz
        Socket: Processors
        0:       0,  1,  2,  3
        
System load averages (1min, 5min, 15min) : 3.0 %, 8.0 %, 6.8 %


Simulating `Cell.scs' on itacolomi.lapsi at 8:45:15 AM, Mon Mar 29, 2021 (process id: 13032).
Current working directory: /home/brunozimmer/Documentos/ComparacaoMemorias/1T1MTJ/64-TG
Command line:
    /tools/cadence/SPECTRE161/tools.lnx86/bin/spectre -64 =mdl  \
        Results.mdl Cell.scs

Loading /tools/cadence/SPECTRE161/tools.lnx86/cmi/lib/64bit/5.0/libinfineon_sh.so ...
Loading /tools/cadence/SPECTRE161/tools.lnx86/cmi/lib/64bit/5.0/libphilips_o_sh.so ...
Loading /tools/cadence/SPECTRE161/tools.lnx86/cmi/lib/64bit/5.0/libphilips_sh.so ...
Loading /tools/cadence/SPECTRE161/tools.lnx86/cmi/lib/64bit/5.0/libsparam_sh.so ...
Loading /tools/cadence/SPECTRE161/tools.lnx86/cmi/lib/64bit/5.0/libstmodels_sh.so ...
Loading /tools/cadence/SPECTRE161/tools.lnx86/spectre/lib/64bit/mdl/libSpectreEH_sh.so ...

Warning from spectre.
    WARNING (MDL-1452): line 1, column 1: syntax error before or at: *
            unrecognised statement.

Reading file:  /home/brunozimmer/Documentos/ComparacaoMemorias/1T1MTJ/64-TG/Cell.scs
Reading file:  /tools/cadence/SPECTRE161/tools.lnx86/spectre/etc/configs/mapsubckt.cfg
Reading file:  /tools/cadence/SPECTRE161/tools.lnx86/spectre/etc/configs/spectre.cfg
Reading file:  /home/brunozimmer/Documentos/ComparacaoMemorias/1T1MTJ/64-TG/45nm_LP.pm
Reading file:  /home/brunozimmer/Documentos/ComparacaoMemorias/1T1MTJ/64-TG/TRANSGATE.spi
Reading file:  /home/brunozimmer/Documentos/ComparacaoMemorias/1T1MTJ/64-TG/1T1MBitCell.spi
Reading file:  /home/brunozimmer/Documentos/ComparacaoMemorias/1T1MTJ/64-TG/MTJT.spi
Time for NDB Parsing: CPU = 196.948 ms, elapsed = 210.798 ms.
Time accumulated: CPU = 219.672 ms, elapsed = 210.806 ms.
Peak resident memory used = 63.2 Mbytes.

Reading link:  /tools/cadence/SPECTRE161/tools.lnx86/spectre/etc/ahdl/discipline.h
Reading file:  /tools/cadence/SPECTRE161/tools.lnx86/spectre/etc/ahdl/disciplines.vams
Reading link:  /tools/cadence/SPECTRE161/tools.lnx86/spectre/etc/ahdl/constants.h
Reading file:  /tools/cadence/SPECTRE161/tools.lnx86/spectre/etc/ahdl/constants.vams
Existing shared object for module bsource_299dda is up to date.
Installed compiled interface for bsource_299dda.
Existing shared object for module bsource_c88c6a is up to date.
Installed compiled interface for bsource_c88c6a.
Existing shared object for module bsource_42ea24 is up to date.
Installed compiled interface for bsource_42ea24.
Existing shared object for module bsource_7b7e87 is up to date.
Installed compiled interface for bsource_7b7e87.
Existing shared object for module bsource_098211 is up to date.
Installed compiled interface for bsource_098211.
Existing shared object for module bsource_ad0f4a is up to date.
Installed compiled interface for bsource_ad0f4a.
Time for Elaboration: CPU = 33.5 ms, elapsed = 33.5691 ms.
Time accumulated: CPU = 253.296 ms, elapsed = 244.514 ms.
Peak resident memory used = 72.6 Mbytes.


Time for EDB Visiting: CPU = 25.961 ms, elapsed = 25.969 ms.
Time accumulated: CPU = 279.378 ms, elapsed = 270.62 ms.
Peak resident memory used = 75.3 Mbytes.


Global user options:
             rawfmt = psfbin

Scoped user options:

Circuit inventory:
              nodes 1067
              bsim4 192   
     bsource_7b7e87 64    
     bsource_42ea24 64    
     bsource_299dda 64    
     bsource_098211 64    
     bsource_ad0f4a 64    
     bsource_c88c6a 64    
          capacitor 392   
           resistor 448   
               vccs 64    
               vcvs 256   
            vsource 163   

Analysis and control statement inventory:
               tran 1     

Output statements:
             .probe 0     
           .measure 0     
               save 0     

Time for parsing: CPU = 13.707 ms, elapsed = 63.458 ms.
Time accumulated: CPU = 293.225 ms, elapsed = 334.229 ms.
Peak resident memory used = 78.6 Mbytes.

~~~~~~~~~~~~~~~~~~~~~~
Pre-Simulation Summary
~~~~~~~~~~~~~~~~~~~~~~
~~~~~~~~~~~~~~~~~~~~~~

++++++++++++++++
TpRead = (0.05n)
++++++++++++++++

***************************************************************
Transient Analysis `TmpRead-000_TmpRead': time = (0 s -> 10 ns)
***************************************************************
Finding DC approximate solution failed. Try again with try_fast_op set to no.

Notice from spectre during IC analysis, during transient analysis `TmpRead-000_TmpRead', during task `MDLControl'.
    Bad pivoting is found during DC analysis. Option dc_pivot_check=yes is recommended for possible improvement of convergence.

DC simulation time: CPU = 98.369 ms, elapsed = 98.4159 ms.

Notice from spectre during transient analysis `TmpRead-000_TmpRead', during task `MDLControl'.
    No outputs were found. Loosening output filter criterion to `allpub'.


Opening the PSF file Cell.raw/TmpRead-000_TmpRead.tran.tran ...
Important parameter values:
    start = 0 s
    outputstart = 0 s
    stop = 10 ns
    step = 10 ps
    maxstep = 200 ps
    ic = all
    useprevic = no
    skipdc = no
    reltol = 1e-03
    abstol(V) = 1 uV
    abstol(I) = 1 pA
    temp = 27 C
    tnom = 27 C
    tempeffects = all
    errpreset = moderate
    method = traponly
    lteratio = 3.5
    relref = sigglobal
    cmin = 0 F
    gmin = 1 pS


Output and IC/nodeset summary:
                 save   163     (current)
                 save   1067    (voltage)

..

Notice from spectre at time = 225.189 ps during transient analysis `TmpRead-000_TmpRead', during task `MDLControl'.
    Found trapezoidal ringing on node X682.M_i_3:int_b.
Notice from spectre at time = 227.689 ps during transient analysis `TmpRead-000_TmpRead', during task `MDLControl'.
    Found trapezoidal ringing on node X682.M_i_3:int_b.
Notice from spectre at time = 228.939 ps during transient analysis `TmpRead-000_TmpRead', during task `MDLControl'.
    Found trapezoidal ringing on node X682.M_i_3:int_b.
Notice from spectre at time = 229.563 ps during transient analysis `TmpRead-000_TmpRead', during task `MDLControl'.
    Found trapezoidal ringing on node X682.M_i_3:int_b.
Notice from spectre at time = 230.813 ps during transient analysis `TmpRead-000_TmpRead', during task `MDLControl'.
    Found trapezoidal ringing on node X682.M_i_3:int_b.
        Further occurrences of this notice will be suppressed.

Zero diagonal found in Jacobian at `X56.NM' and `X52.X1.gMTJ:1'.
........9........8........7........6........5........4........3........2........1........0
Number of accepted tran steps =             770

Notice from spectre during transient analysis `TmpRead-000_TmpRead', during task `MDLControl'.
    Trapezoidal ringing is detected during tran analysis.
        Please use method=trap for better results and performance.


Maximum value achieved for any signal of each quantity: 
V: V(X28.X1.nBiStable) = 10 V
I: I(X28.X1.eBiStable:p) = 19.94 A
If your circuit contains signals of the same quantity that are vastly different in size (such as high voltage circuitry combined with low voltage control circuitry), you should consider specifying global option `bin_relref=yes'.

~~~~~~~~~~~~~~~~~~~~~~~~~~~~~~~~~
Post-Transient Simulation Summary
~~~~~~~~~~~~~~~~~~~~~~~~~~~~~~~~~
   -   To further speed up simulation, consider
          add ++aps on command line
~~~~~~~~~~~~~~~~~~~~~~~~~~~~~~~~~


During simulation, the CPU load for active processors is :
        Spectre  0 (96.3 %)      1 (4.5 %)       2 (3.2 %)       3 (3.2 %)
        Other   
Initial condition solution time: CPU = 98.46 ms, elapsed = 98.5198 ms.
Intrinsic tran analysis time:    CPU = 3.23644 s, elapsed = 3.27393 s.
Total time required for tran analysis `TmpRead-000_TmpRead': CPU = 3.34668 s, elapsed = 3.38441 s.
Time accumulated: CPU = 3.67093 s, elapsed = 3.80975 s.
Peak resident memory used = 88.1 Mbytes.


Notice from spectre during task `MDLControl'.
    195 notices suppressed.


Value of Exported Variables in this iteration of the Search loop ( iteration = 1 ) :
CurBL=6.51094e-06
TpRd=2.5e-10

Warning from spectre.
    WARNING (MDL-1560): Error in search, check search condition validity at start value.


++++++++++++++++
TpWrite = (0.7n)
++++++++++++++++

*****************************************************************
Transient Analysis `TmpWrite-000_TmpWrite': time = (0 s -> 10 ns)
*****************************************************************
Finding DC approximate solution failed. Try again with try_fast_op set to no.

Notice from spectre during IC analysis, during transient analysis `TmpWrite-000_TmpWrite', during task `MDLControl'.
    Bad pivoting is found during DC analysis. Option dc_pivot_check=yes is recommended for possible improvement of convergence.

DC simulation time: CPU = 100.493 ms, elapsed = 100.531 ms.

Notice from spectre during transient analysis `TmpWrite-000_TmpWrite', during task `MDLControl'.
    No outputs were found. Loosening output filter criterion to `allpub'.


Opening the PSF file Cell.raw/TmpWrite-000_TmpWrite.tran.tran ...
Important parameter values:
    start = 0 s
    outputstart = 0 s
    stop = 10 ns
    step = 10 ps
    maxstep = 200 ps
    ic = all
    useprevic = no
    skipdc = no
    reltol = 1e-03
    abstol(V) = 1 uV
    abstol(I) = 1 pA
    temp = 27 C
    tnom = 27 C
    tempeffects = all
    errpreset = moderate
    method = traponly
    lteratio = 3.5
    relref = sigglobal
    cmin = 0 F
    gmin = 1 pS


Output and IC/nodeset summary:
                 save   163     (current)
                 save   1067    (voltage)

..

Notice from spectre at time = 225.189 ps during transient analysis `TmpWrite-000_TmpWrite', during task `MDLControl'.
    Found trapezoidal ringing on node X682.M_i_3:int_b.
Notice from spectre at time = 227.689 ps during transient analysis `TmpWrite-000_TmpWrite', during task `MDLControl'.
    Found trapezoidal ringing on node X682.M_i_3:int_b.
Notice from spectre at time = 228.939 ps during transient analysis `TmpWrite-000_TmpWrite', during task `MDLControl'.
    Found trapezoidal ringing on node X682.M_i_3:int_b.
Notice from spectre at time = 229.563 ps during transient analysis `TmpWrite-000_TmpWrite', during task `MDLControl'.
    Found trapezoidal ringing on node X682.M_i_3:int_b.
Notice from spectre at time = 230.813 ps during transient analysis `TmpWrite-000_TmpWrite', during task `MDLControl'.
    Found trapezoidal ringing on node X682.M_i_3:int_b.
        Further occurrences of this notice will be suppressed.

Zero diagonal found in Jacobian at `X56.NM' and `X52.X1.gMTJ:1'.
........9........8........7........6........5........4........3........2........1........0
Number of accepted tran steps =             772

Notice from spectre during transient analysis `TmpWrite-000_TmpWrite', during task `MDLControl'.
    Trapezoidal ringing is detected during tran analysis.
        Please use method=trap for better results and performance.


Maximum value achieved for any signal of each quantity: 
V: V(X28.X1.nBiStable) = 10 V
I: I(X28.X1.eBiStable:p) = 19.94 A
If your circuit contains signals of the same quantity that are vastly different in size (such as high voltage circuitry combined with low voltage control circuitry), you should consider specifying global option `bin_relref=yes'.

~~~~~~~~~~~~~~~~~~~~~~~~~~~~~~~~~
Post-Transient Simulation Summary
~~~~~~~~~~~~~~~~~~~~~~~~~~~~~~~~~
   -   To further speed up simulation, consider
          add ++aps on command line
~~~~~~~~~~~~~~~~~~~~~~~~~~~~~~~~~


During simulation, the CPU load for active processors is :
        Spectre  0 (51.9 %)      1 (48.8 %)      2 (3.0 %)       3 (3.2 %)
        Other   
Initial condition solution time: CPU = 100.571 ms, elapsed = 100.622 ms.
Intrinsic tran analysis time:    CPU = 3.246 s, elapsed = 3.27484 s.
Total time required for tran analysis `TmpWrite-000_TmpWrite': CPU = 3.3569 s, elapsed = 3.38591 s.
Time accumulated: CPU = 7.05498 s, elapsed = 7.31878 s.
Peak resident memory used = 90.4 Mbytes.


Notice from spectre during task `MDLControl'.
    200 notices suppressed.


Value of Exported Variables in this iteration of the Search loop ( iteration = 1 ) :
CurX=0.000789951
TpWrt=3e-10

Warning from spectre.
    WARNING (MDL-1560): Error in search, check search condition validity at start value.


***************************************************
Transient Analysis `PowerRd': time = (0 s -> 10 ns)
***************************************************
Finding DC approximate solution failed. Try again with try_fast_op set to no.

Notice from spectre during IC analysis, during transient analysis `PowerRd', during task `MDLControl'.
    Bad pivoting is found during DC analysis. Option dc_pivot_check=yes is recommended for possible improvement of convergence.

DC simulation time: CPU = 70.418 ms, elapsed = 70.5218 ms.

Notice from spectre during transient analysis `PowerRd', during task `MDLControl'.
    No outputs were found. Loosening output filter criterion to `allpub'.


Opening the PSF file Cell.raw/PowerRd.tran.tran ...
Important parameter values:
    start = 0 s
    outputstart = 0 s
    stop = 10 ns
    step = 10 ps
    maxstep = 200 ps
    ic = all
    useprevic = no
    skipdc = no
    reltol = 1e-03
    abstol(V) = 1 uV
    abstol(I) = 1 pA
    temp = 27 C
    tnom = 27 C
    tempeffects = all
    errpreset = moderate
    method = traponly
    lteratio = 3.5
    relref = sigglobal
    cmin = 0 F
    gmin = 1 pS


Output and IC/nodeset summary:
                 save   163     (current)
                 save   1067    (voltage)

..

Notice from spectre at time = 225.189 ps during transient analysis `PowerRd', during task `MDLControl'.
    Found trapezoidal ringing on node X682.M_i_3:int_b.
Notice from spectre at time = 227.689 ps during transient analysis `PowerRd', during task `MDLControl'.
    Found trapezoidal ringing on node X682.M_i_3:int_b.
Notice from spectre at time = 228.939 ps during transient analysis `PowerRd', during task `MDLControl'.
    Found trapezoidal ringing on node X682.M_i_3:int_b.
Notice from spectre at time = 229.563 ps during transient analysis `PowerRd', during task `MDLControl'.
    Found trapezoidal ringing on node X682.M_i_3:int_b.
Notice from spectre at time = 230.813 ps during transient analysis `PowerRd', during task `MDLControl'.
    Found trapezoidal ringing on node X682.M_i_3:int_b.
        Further occurrences of this notice will be suppressed.

Zero diagonal found in Jacobian at `X56.NM' and `X52.X1.gMTJ:1'.
........9........8........7........6........5........4........3........2........1........0
Number of accepted tran steps =             772

Notice from spectre during transient analysis `PowerRd', during task `MDLControl'.
    Trapezoidal ringing is detected during tran analysis.
        Please use method=trap for better results and performance.


Maximum value achieved for any signal of each quantity: 
V: V(X28.X1.nBiStable) = 10 V
I: I(X28.X1.eBiStable:p) = 19.94 A
If your circuit contains signals of the same quantity that are vastly different in size (such as high voltage circuitry combined with low voltage control circuitry), you should consider specifying global option `bin_relref=yes'.

~~~~~~~~~~~~~~~~~~~~~~~~~~~~~~~~~
Post-Transient Simulation Summary
~~~~~~~~~~~~~~~~~~~~~~~~~~~~~~~~~
   -   To further speed up simulation, consider
          add ++aps on command line
~~~~~~~~~~~~~~~~~~~~~~~~~~~~~~~~~


During simulation, the CPU load for active processors is :
        Spectre  0 (36.6 %)      1 (64.7 %)      2 (3.1 %)       3 (3.2 %)
        Other   
Initial condition solution time: CPU = 70.476 ms, elapsed = 70.5898 ms.
Intrinsic tran analysis time:    CPU = 3.25218 s, elapsed = 3.27471 s.
Total time required for tran analysis `PowerRd': CPU = 3.32788 s, elapsed = 3.35064 s.
Time accumulated: CPU = 10.392 s, elapsed = 10.7002 s.
Peak resident memory used = 90.4 Mbytes.


Notice from spectre during task `MDLControl'.
    200 notices suppressed.


**************************************************
Transient Analysis `LeakRd': time = (0 s -> 10 ns)
**************************************************
Finding DC approximate solution failed. Try again with try_fast_op set to no.

Notice from spectre during IC analysis, during transient analysis `LeakRd', during task `MDLControl'.
    Bad pivoting is found during DC analysis. Option dc_pivot_check=yes is recommended for possible improvement of convergence.

DC simulation time: CPU = 77.152 ms, elapsed = 77.235 ms.

Notice from spectre during transient analysis `LeakRd', during task `MDLControl'.
    No outputs were found. Loosening output filter criterion to `allpub'.


Opening the PSF file Cell.raw/LeakRd.tran.tran ...
Important parameter values:
    start = 0 s
    outputstart = 0 s
    stop = 10 ns
    step = 10 ps
    maxstep = 200 ps
    ic = all
    useprevic = no
    skipdc = no
    reltol = 1e-03
    abstol(V) = 1 uV
    abstol(I) = 1 pA
    temp = 27 C
    tnom = 27 C
    tempeffects = all
    errpreset = moderate
    method = traponly
    lteratio = 3.5
    relref = sigglobal
    cmin = 0 F
    gmin = 1 pS


Output and IC/nodeset summary:
                 save   163     (current)
                 save   1067    (voltage)

..

Notice from spectre at time = 225.189 ps during transient analysis `LeakRd', during task `MDLControl'.
    Found trapezoidal ringing on node X682.M_i_3:int_b.
Notice from spectre at time = 227.689 ps during transient analysis `LeakRd', during task `MDLControl'.
    Found trapezoidal ringing on node X682.M_i_3:int_b.
Notice from spectre at time = 228.939 ps during transient analysis `LeakRd', during task `MDLControl'.
    Found trapezoidal ringing on node X682.M_i_3:int_b.
Notice from spectre at time = 229.563 ps during transient analysis `LeakRd', during task `MDLControl'.
    Found trapezoidal ringing on node X682.M_i_3:int_b.
Notice from spectre at time = 230.813 ps during transient analysis `LeakRd', during task `MDLControl'.
    Found trapezoidal ringing on node X682.M_i_3:int_b.
        Further occurrences of this notice will be suppressed.

Zero diagonal found in Jacobian at `X56.NM' and `X52.X1.gMTJ:1'.
........9........8........7........6........5........4........3........2........1........0
Number of accepted tran steps =             772

Notice from spectre during transient analysis `LeakRd', during task `MDLControl'.
    Trapezoidal ringing is detected during tran analysis.
        Please use method=trap for better results and performance.


Maximum value achieved for any signal of each quantity: 
V: V(X28.X1.nBiStable) = 10 V
I: I(X28.X1.eBiStable:p) = 19.94 A
If your circuit contains signals of the same quantity that are vastly different in size (such as high voltage circuitry combined with low voltage control circuitry), you should consider specifying global option `bin_relref=yes'.

~~~~~~~~~~~~~~~~~~~~~~~~~~~~~~~~~
Post-Transient Simulation Summary
~~~~~~~~~~~~~~~~~~~~~~~~~~~~~~~~~
   -   To further speed up simulation, consider
          add ++aps on command line
~~~~~~~~~~~~~~~~~~~~~~~~~~~~~~~~~


During simulation, the CPU load for active processors is :
        Spectre  0 (29.2 %)      1 (72.9 %)      2 (3.3 %)       3 (3.3 %)
        Other   
Initial condition solution time: CPU = 77.211 ms, elapsed = 77.301 ms.
Intrinsic tran analysis time:    CPU = 3.30797 s, elapsed = 3.33597 s.
Total time required for tran analysis `LeakRd': CPU = 3.39308 s, elapsed = 3.42129 s.
Time accumulated: CPU = 13.7943 s, elapsed = 14.1628 s.
Peak resident memory used = 90.5 Mbytes.


Notice from spectre during task `MDLControl'.
    200 notices suppressed.


****************************************************
Transient Analysis `PowerWrt': time = (0 s -> 10 ns)
****************************************************
Finding DC approximate solution failed. Try again with try_fast_op set to no.

Notice from spectre during IC analysis, during transient analysis `PowerWrt', during task `MDLControl'.
    Bad pivoting is found during DC analysis. Option dc_pivot_check=yes is recommended for possible improvement of convergence.

DC simulation time: CPU = 71.9 ms, elapsed = 71.933 ms.

Notice from spectre during transient analysis `PowerWrt', during task `MDLControl'.
    No outputs were found. Loosening output filter criterion to `allpub'.


Opening the PSF file Cell.raw/PowerWrt.tran.tran ...
Important parameter values:
    start = 0 s
    outputstart = 0 s
    stop = 10 ns
    step = 10 ps
    maxstep = 200 ps
    ic = all
    useprevic = no
    skipdc = no
    reltol = 1e-03
    abstol(V) = 1 uV
    abstol(I) = 1 pA
    temp = 27 C
    tnom = 27 C
    tempeffects = all
    errpreset = moderate
    method = traponly
    lteratio = 3.5
    relref = sigglobal
    cmin = 0 F
    gmin = 1 pS


Output and IC/nodeset summary:
                 save   163     (current)
                 save   1067    (voltage)

..

Notice from spectre at time = 225.189 ps during transient analysis `PowerWrt', during task `MDLControl'.
    Found trapezoidal ringing on node X682.M_i_3:int_b.
Notice from spectre at time = 227.689 ps during transient analysis `PowerWrt', during task `MDLControl'.
    Found trapezoidal ringing on node X682.M_i_3:int_b.
Notice from spectre at time = 228.939 ps during transient analysis `PowerWrt', during task `MDLControl'.
    Found trapezoidal ringing on node X682.M_i_3:int_b.
Notice from spectre at time = 229.563 ps during transient analysis `PowerWrt', during task `MDLControl'.
    Found trapezoidal ringing on node X682.M_i_3:int_b.
Notice from spectre at time = 230.813 ps during transient analysis `PowerWrt', during task `MDLControl'.
    Found trapezoidal ringing on node X682.M_i_3:int_b.
        Further occurrences of this notice will be suppressed.

Zero diagonal found in Jacobian at `X56.NM' and `X52.X1.gMTJ:1'.
........9........8........7........6........5........4........3........2........1........0
Number of accepted tran steps =             772

Notice from spectre during transient analysis `PowerWrt', during task `MDLControl'.
    Trapezoidal ringing is detected during tran analysis.
        Please use method=trap for better results and performance.


Maximum value achieved for any signal of each quantity: 
V: V(X28.X1.nBiStable) = 10 V
I: I(X28.X1.eBiStable:p) = 19.94 A
If your circuit contains signals of the same quantity that are vastly different in size (such as high voltage circuitry combined with low voltage control circuitry), you should consider specifying global option `bin_relref=yes'.

~~~~~~~~~~~~~~~~~~~~~~~~~~~~~~~~~
Post-Transient Simulation Summary
~~~~~~~~~~~~~~~~~~~~~~~~~~~~~~~~~
   -   To further speed up simulation, consider
          add ++aps on command line
~~~~~~~~~~~~~~~~~~~~~~~~~~~~~~~~~


During simulation, the CPU load for active processors is :
        Spectre  0 (24.4 %)      1 (77.9 %)      2 (3.2 %)       3 (3.2 %)
        Other   
Initial condition solution time: CPU = 71.961 ms, elapsed = 72.006 ms.
Intrinsic tran analysis time:    CPU = 3.25003 s, elapsed = 3.26204 s.
Total time required for tran analysis `PowerWrt': CPU = 3.32743 s, elapsed = 3.33959 s.
Time accumulated: CPU = 17.131 s, elapsed = 17.5393 s.
Peak resident memory used = 90.5 Mbytes.


Notice from spectre during task `MDLControl'.
    200 notices suppressed.


***************************************************
Transient Analysis `LeakWrt': time = (0 s -> 10 ns)
***************************************************
Finding DC approximate solution failed. Try again with try_fast_op set to no.

Notice from spectre during IC analysis, during transient analysis `LeakWrt', during task `MDLControl'.
    Bad pivoting is found during DC analysis. Option dc_pivot_check=yes is recommended for possible improvement of convergence.

DC simulation time: CPU = 93.3 ms, elapsed = 93.3399 ms.

Notice from spectre during transient analysis `LeakWrt', during task `MDLControl'.
    No outputs were found. Loosening output filter criterion to `allpub'.


Opening the PSF file Cell.raw/LeakWrt.tran.tran ...
Important parameter values:
    start = 0 s
    outputstart = 0 s
    stop = 10 ns
    step = 10 ps
    maxstep = 200 ps
    ic = all
    useprevic = no
    skipdc = no
    reltol = 1e-03
    abstol(V) = 1 uV
    abstol(I) = 1 pA
    temp = 27 C
    tnom = 27 C
    tempeffects = all
    errpreset = moderate
    method = traponly
    lteratio = 3.5
    relref = sigglobal
    cmin = 0 F
    gmin = 1 pS


Output and IC/nodeset summary:
                 save   163     (current)
                 save   1067    (voltage)

..

Notice from spectre at time = 225.189 ps during transient analysis `LeakWrt', during task `MDLControl'.
    Found trapezoidal ringing on node X682.M_i_3:int_b.
Notice from spectre at time = 227.689 ps during transient analysis `LeakWrt', during task `MDLControl'.
    Found trapezoidal ringing on node X682.M_i_3:int_b.
Notice from spectre at time = 228.939 ps during transient analysis `LeakWrt', during task `MDLControl'.
    Found trapezoidal ringing on node X682.M_i_3:int_b.
Notice from spectre at time = 229.563 ps during transient analysis `LeakWrt', during task `MDLControl'.
    Found trapezoidal ringing on node X682.M_i_3:int_b.
Notice from spectre at time = 230.813 ps during transient analysis `LeakWrt', during task `MDLControl'.
    Found trapezoidal ringing on node X682.M_i_3:int_b.
        Further occurrences of this notice will be suppressed.

Zero diagonal found in Jacobian at `X56.NM' and `X52.X1.gMTJ:1'.
........9........8........7........6........5........4........3........2........1........0
Number of accepted tran steps =             772

Notice from spectre during transient analysis `LeakWrt', during task `MDLControl'.
    Trapezoidal ringing is detected during tran analysis.
        Please use method=trap for better results and performance.


Maximum value achieved for any signal of each quantity: 
V: V(X28.X1.nBiStable) = 10 V
I: I(X28.X1.eBiStable:p) = 19.94 A
If your circuit contains signals of the same quantity that are vastly different in size (such as high voltage circuitry combined with low voltage control circuitry), you should consider specifying global option `bin_relref=yes'.

~~~~~~~~~~~~~~~~~~~~~~~~~~~~~~~~~
Post-Transient Simulation Summary
~~~~~~~~~~~~~~~~~~~~~~~~~~~~~~~~~
   -   To further speed up simulation, consider
          add ++aps on command line
~~~~~~~~~~~~~~~~~~~~~~~~~~~~~~~~~


During simulation, the CPU load for active processors is :
        Spectre  0 (20.9 %)      1 (81.3 %)      2 (3.0 %)       3 (3.2 %)
        Other   
Initial condition solution time: CPU = 93.376 ms, elapsed = 93.4298 ms.
Intrinsic tran analysis time:    CPU = 3.30937 s, elapsed = 3.33675 s.
Total time required for tran analysis `LeakWrt': CPU = 3.41176 s, elapsed = 3.43933 s.
Time accumulated: CPU = 20.552 s, elapsed = 21.0136 s.
Peak resident memory used = 90.5 Mbytes.


Notice from spectre during task `MDLControl'.
    200 notices suppressed.


**********************
DC Analysis `LeakStat'
**********************

Notice from spectre during DC analysis `LeakStat', during task `MDLControl'.
    No outputs were found. Loosening output filter criterion to `allpub'.

Finding DC approximate solution failed. Try again with try_fast_op set to no.

Opening the PSF file Cell.raw/LeakStat.dc ...
Important parameter values:
    reltol = 1e-03
    abstol(V) = 1 uV
    abstol(I) = 1 pA
    temp = 27 C
    tnom = 27 C
    tempeffects = all
    gmindc = 1 pS

Notice from spectre during DC analysis `LeakStat', during task `MDLControl'.
    Bad pivoting is found during DC analysis. Option dc_pivot_check=yes is recommended for possible improvement of convergence.


Maximum value achieved for any signal of each quantity: 
V: V(X60.X1.nBiStable) = 10 V
I: I(X4.X1.eBiStable:p) = 909.1 uA

Notice from spectre during info, during DC analysis `LeakStat', during task `MDLControl'.
    No outputs were found. Loosening output filter criterion to `allpub'.

***************************************
Operating-Point information `LeakStat':
***************************************
Operating point computed in DC analysis `LeakStat' at T = 27 C.

    V(BL1) = 884.813 mV
    V(BL1T) = 0 V
    V(BL2) = 884.813 mV
    V(BL2T) = 0 V
    V(BL3) = 884.813 mV
    V(BL3T) = 0 V
    V(BL4) = 454.374 nV
    V(BL4T) = 0 V
    V(BL5) = 884.813 mV
    V(BL5T) = 0 V
    V(BL6) = 884.813 mV
    V(BL6T) = 0 V
    V(BL7) = 884.813 mV
    V(BL7T) = 0 V
    V(BL8) = 884.813 mV
    V(BL8T) = 0 V
    V(ENBl1) = 0 V
    V(ENBl2) = 0 V
    V(ENBl3) = 0 V
    V(ENBl4) = 1.6 V
    V(ENBl5) = 0 V
    V(ENBl6) = 0 V
    V(ENBl7) = 0 V
    V(ENBl8) = 0 V
    V(ENWl) = 0 V
    V(ENWl1) = 1.6 V
    V(NM1) = 884.813 mV
    V(NM2) = 884.813 mV
    V(NM3) = 884.813 mV
    V(NM4) = 884.813 mV
    V(NM5) = 884.813 mV
    V(NM6) = 884.813 mV
    V(NM7) = 884.813 mV
    V(NM8) = 884.813 mV
    V(NM9) = 884.813 mV
    V(NM10) = 884.813 mV
    V(NM11) = 884.813 mV
    V(NM12) = 884.813 mV
    V(NM13) = 884.813 mV
    V(NM14) = 884.813 mV
    V(NM15) = 884.813 mV
    V(NM16) = 884.813 mV
    V(NM17) = 884.813 mV
    V(NM18) = 884.813 mV
    V(NM19) = 884.813 mV
    V(NM20) = 884.813 mV
    V(NM21) = 884.813 mV
    V(NM22) = 884.813 mV
    V(NM23) = 884.813 mV
    V(NM24) = 884.813 mV
    V(NM25) = 454.374 nV
    V(NM26) = 454.374 nV
    V(NM27) = 454.374 nV
    V(NM28) = 454.374 nV
    V(NM29) = 454.374 nV
    V(NM30) = 454.374 nV
    V(NM31) = 454.374 nV
    V(NM32) = 454.374 nV
    V(NM33) = 884.813 mV
    V(NM34) = 884.813 mV
    V(NM35) = 884.813 mV
    V(NM36) = 884.813 mV
    V(NM37) = 884.813 mV
    V(NM38) = 884.813 mV
    V(NM39) = 884.813 mV
    V(NM40) = 884.813 mV
    V(NM41) = 884.813 mV
    V(NM42) = 884.813 mV
    V(NM43) = 884.813 mV
    V(NM44) = 884.813 mV
    V(NM45) = 884.813 mV
    V(NM46) = 884.813 mV
    V(NM47) = 884.813 mV
    V(NM48) = 884.813 mV
    V(NM49) = 884.813 mV
    V(NM50) = 884.813 mV
    V(NM51) = 884.813 mV
    V(NM52) = 884.813 mV
    V(NM53) = 884.813 mV
    V(NM54) = 884.813 mV
    V(NM55) = 884.813 mV
    V(NM56) = 884.813 mV
    V(NM57) = 884.813 mV
    V(NM58) = 884.813 mV
    V(NM59) = 884.813 mV
    V(NM60) = 884.813 mV
    V(NM61) = 884.813 mV
    V(NM62) = 884.813 mV
    V(NM63) = 884.813 mV
    V(NM64) = 884.813 mV
    V(SL1) = 884.814 mV
    V(SL1T) = 0 V
    V(SL2) = 884.814 mV
    V(SL2T) = 0 V
    V(SL3) = 884.814 mV
    V(SL3T) = 0 V
    V(SL4) = 10.1558 uV
    V(SL4T) = 0 V
    V(SL5) = 884.814 mV
    V(SL5T) = 0 V
    V(SL6) = 884.814 mV
    V(SL6T) = 0 V
    V(SL7) = 884.814 mV
    V(SL7T) = 0 V
    V(SL8) = 884.814 mV
    V(SL8T) = 0 V
    I(Vbl1:p) = 535.108 nA
    I(Vbl1en:p) = 9.8758 nA
    I(Vbl2:p) = 535.108 nA
    I(Vbl2en:p) = 9.8758 nA
    I(Vbl3:p) = 535.108 nA
    I(Vbl3en:p) = 9.8758 nA
    I(Vbl4:p) = 35.0158 nA
    I(Vbl4en:p) = -137.531 nA
    I(Vbl5:p) = 535.108 nA
    I(Vbl5en:p) = 9.8758 nA
    I(Vbl6:p) = 535.108 nA
    I(Vbl6en:p) = 9.8758 nA
    I(Vbl7:p) = 535.108 nA
    I(Vbl7en:p) = 9.8758 nA
    I(Vbl8:p) = 535.108 nA
    I(Vbl8en:p) = 9.8758 nA
    V(Vdd) = 1.6 V
    I(Vsl1:p) = 535.108 nA
    I(Vsl2:p) = 535.108 nA
    I(Vsl3:p) = 535.108 nA
    I(Vsl4:p) = 408.826 nA
    I(Vsl5:p) = 535.108 nA
    I(Vsl6:p) = 535.108 nA
    I(Vsl7:p) = 535.108 nA
    I(Vsl8:p) = 535.108 nA
    I(Vtest1:p) = -106.954 fA
    I(Vtest2:p) = -106.954 fA
    I(Vtest3:p) = -106.954 fA
    I(Vtest4:p) = -185.425 pA
    I(Vtest5:p) = -106.954 fA
    I(Vtest6:p) = -106.954 fA
    I(Vtest7:p) = -106.954 fA
    I(Vtest8:p) = -2.40498 aA
    I(Vtest9:p) = -106.954 fA
    I(Vtest10:p) = -106.954 fA
    I(Vtest11:p) = -106.954 fA
    I(Vtest12:p) = -185.425 pA
    I(Vtest13:p) = -106.954 fA
    I(Vtest14:p) = -106.954 fA
    I(Vtest15:p) = -106.954 fA
    I(Vtest16:p) = -2.40498 aA
    I(Vtest17:p) = -106.954 fA
    I(Vtest18:p) = -106.954 fA
    I(Vtest19:p) = -106.954 fA
    I(Vtest20:p) = -185.425 pA
    I(Vtest21:p) = -106.954 fA
    I(Vtest22:p) = -106.954 fA
    I(Vtest23:p) = -106.954 fA
    I(Vtest24:p) = -2.40498 aA
    I(Vtest25:p) = -23.1537 aA
    I(Vtest26:p) = -23.1537 aA
    I(Vtest27:p) = -23.1537 aA
    I(Vtest28:p) = -25.995 aA
    I(Vtest29:p) = -23.1537 aA
    I(Vtest30:p) = -23.1537 aA
    I(Vtest31:p) = -23.1537 aA
    I(Vtest32:p) = -25.6277 aA
    I(Vtest33:p) = -106.954 fA
    I(Vtest34:p) = -106.954 fA
    I(Vtest35:p) = -106.954 fA
    I(Vtest36:p) = -185.425 pA
    I(Vtest37:p) = -106.954 fA
    I(Vtest38:p) = -106.954 fA
    I(Vtest39:p) = -106.954 fA
    I(Vtest40:p) = -2.40498 aA
    I(Vtest41:p) = -106.954 fA
    I(Vtest42:p) = -106.954 fA
    I(Vtest43:p) = -106.954 fA
    I(Vtest44:p) = -185.425 pA
    I(Vtest45:p) = -106.954 fA
    I(Vtest46:p) = -106.954 fA
    I(Vtest47:p) = -106.954 fA
    I(Vtest48:p) = -2.40498 aA
    I(Vtest49:p) = -106.954 fA
    I(Vtest50:p) = -106.954 fA
    I(Vtest51:p) = -106.954 fA
    I(Vtest52:p) = -185.425 pA
    I(Vtest53:p) = -106.954 fA
    I(Vtest54:p) = -106.954 fA
    I(Vtest55:p) = -106.954 fA
    I(Vtest56:p) = -2.40498 aA
    I(Vtest57:p) = -106.954 fA
    I(Vtest58:p) = -106.954 fA
    I(Vtest59:p) = -106.954 fA
    I(Vtest60:p) = -185.425 pA
    I(Vtest61:p) = -106.954 fA
    I(Vtest62:p) = -106.954 fA
    I(Vtest63:p) = -106.954 fA
    I(Vtest64:p) = -2.40498 aA
    I(Vvdd:p) = -13.6138 uA
    I(Vwl1:p) = -313.604 nA
    I(Vwl2:p) = -313.604 nA
    I(Vwl3:p) = -313.604 nA
    I(Vwl4:p) = 535.001 nA
    I(Vwl5:p) = -313.604 nA
    I(Vwl6:p) = -313.604 nA
    I(Vwl7:p) = -313.604 nA
    I(Vwl8:p) = -386.277 nA
    I(Vwlen1:p) = -24.9479 nA
    I(Vwlen:p) = 74.0685 nA
    V(WL1) = 703.042 mV
    V(WL1T) = 1.6 V
    V(WL2) = 703.042 mV
    V(WL2T) = 1.6 V
    V(WL3) = 703.042 mV
    V(WL3T) = 1.6 V
    V(WL4) = 299.729 mV
    V(WL4T) = 0 V
    V(WL5) = 703.042 mV
    V(WL5T) = 1.6 V
    V(WL6) = 703.042 mV
    V(WL6T) = 1.6 V
    V(WL7) = 703.042 mV
    V(WL7T) = 1.6 V
    V(WL8) = 1.59999 V
    V(WL8T) = 1.6 V
    V(WL9) = 800.568 mV
    V(WL9T) = 800.284 mV
    V(WL10) = 800.568 mV
    V(WL10T) = 800.284 mV
    V(WL11) = 800.568 mV
    V(WL11T) = 800.284 mV
    V(WL12) = 800.568 mV
    V(WL12T) = 800.284 mV
    V(WL13) = 800.568 mV
    V(WL13T) = 800.284 mV
    V(WL14) = 800.568 mV
    V(WL14T) = 800.284 mV
    V(WL15) = 800.568 mV
    V(WL15T) = 800.284 mV
    V(WL16) = 800.568 mV
    V(WL16T) = 800.284 mV
    V(X1.NM) = 884.813 mV
    V(X1.X1.n50) = 11.7547e-27 V
    V(X1.X1.n51) = -29.0545e-39 V
    V(X1.X1.n60) = 11.7547e-27 V
    V(X1.X1.n61) = 0 V
    V(X1.X1.nBiStable) = -185.087e-36 V
    V(X1.X1.nFeedback) = -18.5087e-39 V
    V(X1.X1.nINeg) = 0 V
    V(X1.X1.nIPos) = 1.06954 nV
    V(X1.X1.nRVFit) = 1.8 V
    V(X1.X1.nVCR1) = 884.813 mV
    V(X1.X1.nVCtrl) = 1.8 V
    V(X1.X1.nVDec) = 18.4884e-36 V
    V(X1.X1.nVTMR) = 1.8 V
    I(X1.X1.vISample:p) = -106.954 fA
    V(X2.NM) = 884.813 mV
    V(X2.X1.n50) = 11.7547e-27 V
    V(X2.X1.n51) = -29.0545e-39 V
    V(X2.X1.n60) = 11.7547e-27 V
    V(X2.X1.n61) = 0 V
    V(X2.X1.nBiStable) = -185.075e-36 V
    V(X2.X1.nFeedback) = -18.5075e-39 V
    V(X2.X1.nINeg) = 0 V
    V(X2.X1.nIPos) = 1.06954 nV
    V(X2.X1.nRVFit) = 1.8 V
    V(X2.X1.nVCR1) = 884.813 mV
    V(X2.X1.nVCtrl) = 1.8 V
    V(X2.X1.nVDec) = 18.4872e-36 V
    V(X2.X1.nVTMR) = 1.8 V
    I(X2.X1.vISample:p) = -106.954 fA
    V(X3.NM) = 884.813 mV
    V(X3.X1.n50) = 0 V
    V(X3.X1.n51) = -29.0545e-39 V
    V(X3.X1.n60) = 0 V
    V(X3.X1.n61) = 0 V
    V(X3.X1.nBiStable) = -311.048e-36 V
    V(X3.X1.nFeedback) = -31.1048e-39 V
    V(X3.X1.nINeg) = 0 V
    V(X3.X1.nIPos) = 1.06954 nV
    V(X3.X1.nRVFit) = 1.8 V
    V(X3.X1.nVCR1) = 884.813 mV
    V(X3.X1.nVCtrl) = 1.8 V
    V(X3.X1.nVDec) = 31.0706e-36 V
    V(X3.X1.nVTMR) = 1.8 V
    I(X3.X1.vISample:p) = -106.954 fA
    V(X4.NM) = 884.814 mV
    V(X4.X1.n50) = -7.38323e-24 V
    V(X4.X1.n51) = 7.38324 pV
    V(X4.X1.n60) = 0 V
    V(X4.X1.n61) = 7.38324 pV
    V(X4.X1.nBiStable) = 10 V
    V(X4.X1.nFeedback) = 909.091 mV
    V(X4.X1.nINeg) = 0 V
    V(X4.X1.nIPos) = 1.85425 uV
    V(X4.X1.nRVFit) = 4.5 V
    V(X4.X1.nVCR1) = 884.813 mV
    V(X4.X1.nVCtrl) = 4.5 V
    V(X4.X1.nVDec) = -13.6903 aV
    V(X4.X1.nVTMR) = 4.5 V
    I(X4.X1.vISample:p) = -185.425 pA
    V(X5.NM) = 884.813 mV
    V(X5.X1.n50) = 11.7547e-27 V
    V(X5.X1.n51) = -29.0545e-39 V
    V(X5.X1.n60) = 11.7547e-27 V
    V(X5.X1.n61) = 0 V
    V(X5.X1.nBiStable) = -185.079e-36 V
    V(X5.X1.nFeedback) = -18.5079e-39 V
    V(X5.X1.nINeg) = 0 V
    V(X5.X1.nIPos) = 1.06954 nV
    V(X5.X1.nRVFit) = 1.8 V
    V(X5.X1.nVCR1) = 884.813 mV
    V(X5.X1.nVCtrl) = 1.8 V
    V(X5.X1.nVDec) = 18.4875e-36 V
    V(X5.X1.nVTMR) = 1.8 V
    I(X5.X1.vISample:p) = -106.954 fA
    V(X6.NM) = 884.813 mV
    V(X6.X1.n50) = 11.7547e-27 V
    V(X6.X1.n51) = -29.0545e-39 V
    V(X6.X1.n60) = 11.7547e-27 V
    V(X6.X1.n61) = 0 V
    V(X6.X1.nBiStable) = -185.081e-36 V
    V(X6.X1.nFeedback) = -18.5081e-39 V
    V(X6.X1.nINeg) = 0 V
    V(X6.X1.nIPos) = 1.06954 nV
    V(X6.X1.nRVFit) = 1.8 V
    V(X6.X1.nVCR1) = 884.813 mV
    V(X6.X1.nVCtrl) = 1.8 V
    V(X6.X1.nVDec) = 18.4878e-36 V
    V(X6.X1.nVTMR) = 1.8 V
    I(X6.X1.vISample:p) = -106.954 fA
    V(X7.NM) = 884.813 mV
    V(X7.X1.n50) = 11.7547e-27 V
    V(X7.X1.n51) = -29.0545e-39 V
    V(X7.X1.n60) = 11.7547e-27 V
    V(X7.X1.n61) = 0 V
    V(X7.X1.nBiStable) = -185.078e-36 V
    V(X7.X1.nFeedback) = -18.5078e-39 V
    V(X7.X1.nINeg) = 0 V
    V(X7.X1.nIPos) = 1.06954 nV
    V(X7.X1.nRVFit) = 1.8 V
    V(X7.X1.nVCR1) = 884.813 mV
    V(X7.X1.nVCtrl) = 1.8 V
    V(X7.X1.nVDec) = 18.4874e-36 V
    V(X7.X1.nVTMR) = 1.8 V
    I(X7.X1.vISample:p) = -106.954 fA
    V(X8.NM) = 884.813 mV
    V(X8.X1.n50) = 0 V
    V(X8.X1.n51) = 0 V
    V(X8.X1.n60) = 0 V
    V(X8.X1.n61) = 0 V
    V(X8.X1.nBiStable) = 9.49557e-66 V
    V(X8.X1.nFeedback) = 1.15913e-69 V
    V(X8.X1.nINeg) = 0 V
    V(X8.X1.nIPos) = 23.9807 fV
    V(X8.X1.nRVFit) = 1.8 V
    V(X8.X1.nVCR1) = 884.813 mV
    V(X8.X1.nVCtrl) = 1.8 V
    V(X8.X1.nVDec) = 0 V
    V(X8.X1.nVTMR) = 1.8 V
    I(X8.X1.vISample:p) = -2.40498 aA
    V(X9.NM) = 884.813 mV
    V(X9.X1.n50) = 11.7547e-27 V
    V(X9.X1.n51) = -29.0545e-39 V
    V(X9.X1.n60) = 11.7547e-27 V
    V(X9.X1.n61) = 0 V
    V(X9.X1.nBiStable) = -185.089e-36 V
    V(X9.X1.nFeedback) = -18.5089e-39 V
    V(X9.X1.nINeg) = 0 V
    V(X9.X1.nIPos) = 1.06954 nV
    V(X9.X1.nRVFit) = 1.8 V
    V(X9.X1.nVCR1) = 884.813 mV
    V(X9.X1.nVCtrl) = 1.8 V
    V(X9.X1.nVDec) = 18.4886e-36 V
    V(X9.X1.nVTMR) = 1.8 V
    I(X9.X1.vISample:p) = -106.954 fA
    V(X10.NM) = 884.813 mV
    V(X10.X1.n50) = 0 V
    V(X10.X1.n51) = -29.0545e-39 V
    V(X10.X1.n60) = 0 V
    V(X10.X1.n61) = 0 V
    V(X10.X1.nBiStable) = -311.056e-36 V
    V(X10.X1.nFeedback) = -31.1056e-39 V
    V(X10.X1.nINeg) = 0 V
    V(X10.X1.nIPos) = 1.06954 nV
    V(X10.X1.nRVFit) = 1.8 V
    V(X10.X1.nVCR1) = 884.813 mV
    V(X10.X1.nVCtrl) = 1.8 V
    V(X10.X1.nVDec) = 31.0714e-36 V
    V(X10.X1.nVTMR) = 1.8 V
    I(X10.X1.vISample:p) = -106.954 fA
    V(X11.NM) = 884.813 mV
    V(X11.X1.n50) = 11.7547e-27 V
    V(X11.X1.n51) = -29.0545e-39 V
    V(X11.X1.n60) = 11.7547e-27 V
    V(X11.X1.n61) = 0 V
    V(X11.X1.nBiStable) = -185.075e-36 V
    V(X11.X1.nFeedback) = -18.5075e-39 V
    V(X11.X1.nINeg) = 0 V
    V(X11.X1.nIPos) = 1.06954 nV
    V(X11.X1.nRVFit) = 1.8 V
    V(X11.X1.nVCR1) = 884.813 mV
    V(X11.X1.nVCtrl) = 1.8 V
    V(X11.X1.nVDec) = 18.4872e-36 V
    V(X11.X1.nVTMR) = 1.8 V
    I(X11.X1.vISample:p) = -106.954 fA
    V(X12.NM) = 884.814 mV
    V(X12.X1.n50) = -7.38323e-24 V
    V(X12.X1.n51) = 7.38324 pV
    V(X12.X1.n60) = 0 V
    V(X12.X1.n61) = 7.38324 pV
    V(X12.X1.nBiStable) = 10 V
    V(X12.X1.nFeedback) = 909.091 mV
    V(X12.X1.nINeg) = 0 V
    V(X12.X1.nIPos) = 1.85425 uV
    V(X12.X1.nRVFit) = 4.5 V
    V(X12.X1.nVCR1) = 884.813 mV
    V(X12.X1.nVCtrl) = 4.5 V
    V(X12.X1.nVDec) = -13.6903 aV
    V(X12.X1.nVTMR) = 4.5 V
    I(X12.X1.vISample:p) = -185.425 pA
    V(X13.NM) = 884.813 mV
    V(X13.X1.n50) = 0 V
    V(X13.X1.n51) = -29.0545e-39 V
    V(X13.X1.n60) = 0 V
    V(X13.X1.n61) = 0 V
    V(X13.X1.nBiStable) = -311.064e-36 V
    V(X13.X1.nFeedback) = -31.1064e-39 V
    V(X13.X1.nINeg) = 0 V
    V(X13.X1.nIPos) = 1.06954 nV
    V(X13.X1.nRVFit) = 1.8 V
    V(X13.X1.nVCR1) = 884.813 mV
    V(X13.X1.nVCtrl) = 1.8 V
    V(X13.X1.nVDec) = 31.0721e-36 V
    V(X13.X1.nVTMR) = 1.8 V
    I(X13.X1.vISample:p) = -106.954 fA
    V(X14.NM) = 884.813 mV
    V(X14.X1.n50) = 11.7547e-27 V
    V(X14.X1.n51) = -29.0545e-39 V
    V(X14.X1.n60) = 11.7547e-27 V
    V(X14.X1.n61) = 0 V
    V(X14.X1.nBiStable) = -185.087e-36 V
    V(X14.X1.nFeedback) = -18.5087e-39 V
    V(X14.X1.nINeg) = 0 V
    V(X14.X1.nIPos) = 1.06954 nV
    V(X14.X1.nRVFit) = 1.8 V
    V(X14.X1.nVCR1) = 884.813 mV
    V(X14.X1.nVCtrl) = 1.8 V
    V(X14.X1.nVDec) = 18.4883e-36 V
    V(X14.X1.nVTMR) = 1.8 V
    I(X14.X1.vISample:p) = -106.954 fA
    V(X15.NM) = 884.813 mV
    V(X15.X1.n50) = 0 V
    V(X15.X1.n51) = -29.0545e-39 V
    V(X15.X1.n60) = 0 V
    V(X15.X1.n61) = 0 V
    V(X15.X1.nBiStable) = -311.064e-36 V
    V(X15.X1.nFeedback) = -31.1064e-39 V
    V(X15.X1.nINeg) = 0 V
    V(X15.X1.nIPos) = 1.06954 nV
    V(X15.X1.nRVFit) = 1.8 V
    V(X15.X1.nVCR1) = 884.813 mV
    V(X15.X1.nVCtrl) = 1.8 V
    V(X15.X1.nVDec) = 31.0721e-36 V
    V(X15.X1.nVTMR) = 1.8 V
    I(X15.X1.vISample:p) = -106.954 fA
    V(X16.NM) = 884.813 mV
    V(X16.X1.n50) = 0 V
    V(X16.X1.n51) = 0 V
    V(X16.X1.n60) = 0 V
    V(X16.X1.n61) = 0 V
    V(X16.X1.nBiStable) = -18.9911e-66 V
    V(X16.X1.nFeedback) = -2.31825e-69 V
    V(X16.X1.nINeg) = 0 V
    V(X16.X1.nIPos) = 23.9807 fV
    V(X16.X1.nRVFit) = 1.8 V
    V(X16.X1.nVCR1) = 884.813 mV
    V(X16.X1.nVCtrl) = 1.8 V
    V(X16.X1.nVDec) = 0 V
    V(X16.X1.nVTMR) = 1.8 V
    I(X16.X1.vISample:p) = -2.40498 aA
    V(X17.NM) = 884.813 mV
    V(X17.X1.n50) = 0 V
    V(X17.X1.n51) = -29.0545e-39 V
    V(X17.X1.n60) = 0 V
    V(X17.X1.n61) = 0 V
    V(X17.X1.nBiStable) = -311.084e-36 V
    V(X17.X1.nFeedback) = -31.1084e-39 V
    V(X17.X1.nINeg) = 0 V
    V(X17.X1.nIPos) = 1.06954 nV
    V(X17.X1.nRVFit) = 1.8 V
    V(X17.X1.nVCR1) = 884.813 mV
    V(X17.X1.nVCtrl) = 1.8 V
    V(X17.X1.nVDec) = 31.0742e-36 V
    V(X17.X1.nVTMR) = 1.8 V
    I(X17.X1.vISample:p) = -106.954 fA
    V(X18.NM) = 884.813 mV
    V(X18.X1.n50) = 11.7547e-27 V
    V(X18.X1.n51) = -29.0545e-39 V
    V(X18.X1.n60) = 11.7547e-27 V
    V(X18.X1.n61) = 0 V
    V(X18.X1.nBiStable) = -185.095e-36 V
    V(X18.X1.nFeedback) = -18.5095e-39 V
    V(X18.X1.nINeg) = 0 V
    V(X18.X1.nIPos) = 1.06954 nV
    V(X18.X1.nRVFit) = 1.8 V
    V(X18.X1.nVCR1) = 884.813 mV
    V(X18.X1.nVCtrl) = 1.8 V
    V(X18.X1.nVDec) = 18.4892e-36 V
    V(X18.X1.nVTMR) = 1.8 V
    I(X18.X1.vISample:p) = -106.954 fA
    V(X19.NM) = 884.813 mV
    V(X19.X1.n50) = 0 V
    V(X19.X1.n51) = -29.0545e-39 V
    V(X19.X1.n60) = 0 V
    V(X19.X1.n61) = 0 V
    V(X19.X1.nBiStable) = -311.068e-36 V
    V(X19.X1.nFeedback) = -31.1068e-39 V
    V(X19.X1.nINeg) = 0 V
    V(X19.X1.nIPos) = 1.06954 nV
    V(X19.X1.nRVFit) = 1.8 V
    V(X19.X1.nVCR1) = 884.813 mV
    V(X19.X1.nVCtrl) = 1.8 V
    V(X19.X1.nVDec) = 31.0726e-36 V
    V(X19.X1.nVTMR) = 1.8 V
    I(X19.X1.vISample:p) = -106.954 fA
    V(X20.NM) = 884.814 mV
    V(X20.X1.n50) = -7.38323e-24 V
    V(X20.X1.n51) = 7.38324 pV
    V(X20.X1.n60) = 0 V
    V(X20.X1.n61) = 7.38324 pV
    V(X20.X1.nBiStable) = 10 V
    V(X20.X1.nFeedback) = 909.091 mV
    V(X20.X1.nINeg) = 0 V
    V(X20.X1.nIPos) = 1.85425 uV
    V(X20.X1.nRVFit) = 4.5 V
    V(X20.X1.nVCR1) = 884.813 mV
    V(X20.X1.nVCtrl) = 4.5 V
    V(X20.X1.nVDec) = -13.6903 aV
    V(X20.X1.nVTMR) = 4.5 V
    I(X20.X1.vISample:p) = -185.425 pA
    V(X21.NM) = 884.813 mV
    V(X21.X1.n50) = 11.7547e-27 V
    V(X21.X1.n51) = -29.0545e-39 V
    V(X21.X1.n60) = 11.7547e-27 V
    V(X21.X1.n61) = 0 V
    V(X21.X1.nBiStable) = -185.104e-36 V
    V(X21.X1.nFeedback) = -18.5104e-39 V
    V(X21.X1.nINeg) = 0 V
    V(X21.X1.nIPos) = 1.06954 nV
    V(X21.X1.nRVFit) = 1.8 V
    V(X21.X1.nVCR1) = 884.813 mV
    V(X21.X1.nVCtrl) = 1.8 V
    V(X21.X1.nVDec) = 18.49e-36 V
    V(X21.X1.nVTMR) = 1.8 V
    I(X21.X1.vISample:p) = -106.954 fA
    V(X22.NM) = 884.813 mV
    V(X22.X1.n50) = 11.7547e-27 V
    V(X22.X1.n51) = -29.0545e-39 V
    V(X22.X1.n60) = 11.7547e-27 V
    V(X22.X1.n61) = 0 V
    V(X22.X1.nBiStable) = -185.103e-36 V
    V(X22.X1.nFeedback) = -18.5103e-39 V
    V(X22.X1.nINeg) = 0 V
    V(X22.X1.nIPos) = 1.06954 nV
    V(X22.X1.nRVFit) = 1.8 V
    V(X22.X1.nVCR1) = 884.813 mV
    V(X22.X1.nVCtrl) = 1.8 V
    V(X22.X1.nVDec) = 18.49e-36 V
    V(X22.X1.nVTMR) = 1.8 V
    I(X22.X1.vISample:p) = -106.954 fA
    V(X23.NM) = 884.813 mV
    V(X23.X1.n50) = 11.7547e-27 V
    V(X23.X1.n51) = -29.0545e-39 V
    V(X23.X1.n60) = 11.7547e-27 V
    V(X23.X1.n61) = 0 V
    V(X23.X1.nBiStable) = -185.104e-36 V
    V(X23.X1.nFeedback) = -18.5104e-39 V
    V(X23.X1.nINeg) = 0 V
    V(X23.X1.nIPos) = 1.06954 nV
    V(X23.X1.nRVFit) = 1.8 V
    V(X23.X1.nVCR1) = 884.813 mV
    V(X23.X1.nVCtrl) = 1.8 V
    V(X23.X1.nVDec) = 18.49e-36 V
    V(X23.X1.nVTMR) = 1.8 V
    I(X23.X1.vISample:p) = -106.954 fA
    V(X24.NM) = 884.813 mV
    V(X24.X1.n50) = 0 V
    V(X24.X1.n51) = 0 V
    V(X24.X1.n60) = 0 V
    V(X24.X1.n61) = 0 V
    V(X24.X1.nBiStable) = 0 V
    V(X24.X1.nFeedback) = 0 V
    V(X24.X1.nINeg) = 0 V
    V(X24.X1.nIPos) = 23.9807 fV
    V(X24.X1.nRVFit) = 1.8 V
    V(X24.X1.nVCR1) = 884.813 mV
    V(X24.X1.nVCtrl) = 1.8 V
    V(X24.X1.nVDec) = 0 V
    V(X24.X1.nVTMR) = 1.8 V
    I(X24.X1.vISample:p) = -2.40498 aA
    V(X25.NM) = 454.374 nV
    V(X25.X1.n50) = 0 V
    V(X25.X1.n51) = 0 V
    V(X25.X1.n60) = 0 V
    V(X25.X1.n61) = 0 V
    V(X25.X1.nBiStable) = 0 V
    V(X25.X1.nFeedback) = 0 V
    V(X25.X1.nINeg) = 0 V
    V(X25.X1.nIPos) = 231.593 fV
    V(X25.X1.nRVFit) = 1.8 V
    V(X25.X1.nVCR1) = 454.374 nV
    V(X25.X1.nVCtrl) = 1.8 V
    V(X25.X1.nVDec) = 0 V
    V(X25.X1.nVTMR) = 1.8 V
    I(X25.X1.vISample:p) = -23.1537 aA
    V(X26.NM) = 454.374 nV
    V(X26.X1.n50) = 0 V
    V(X26.X1.n51) = 0 V
    V(X26.X1.n60) = 0 V
    V(X26.X1.n61) = 0 V
    V(X26.X1.nBiStable) = -493.552e-180 V
    V(X26.X1.nFeedback) = -60.248e-183 V
    V(X26.X1.nINeg) = 0 V
    V(X26.X1.nIPos) = 231.593 fV
    V(X26.X1.nRVFit) = 1.8 V
    V(X26.X1.nVCR1) = 454.374 nV
    V(X26.X1.nVCtrl) = 1.8 V
    V(X26.X1.nVDec) = 0 V
    V(X26.X1.nVTMR) = 1.8 V
    I(X26.X1.vISample:p) = -23.1537 aA
    V(X27.NM) = 454.374 nV
    V(X27.X1.n50) = 0 V
    V(X27.X1.n51) = 0 V
    V(X27.X1.n60) = 0 V
    V(X27.X1.n61) = 0 V
    V(X27.X1.nBiStable) = 0 V
    V(X27.X1.nFeedback) = 0 V
    V(X27.X1.nINeg) = 0 V
    V(X27.X1.nIPos) = 231.593 fV
    V(X27.X1.nRVFit) = 1.8 V
    V(X27.X1.nVCR1) = 454.374 nV
    V(X27.X1.nVCtrl) = 1.8 V
    V(X27.X1.nVDec) = 0 V
    V(X27.X1.nVTMR) = 1.8 V
    I(X27.X1.vISample:p) = -23.1537 aA
    V(X28.NM) = 454.374 nV
    V(X28.X1.n50) = 0 V
    V(X28.X1.n51) = -6.8249e-48 V
    V(X28.X1.n60) = 0 V
    V(X28.X1.n61) = 0 V
    V(X28.X1.nBiStable) = -17.7653e-60 V
    V(X28.X1.nFeedback) = -1.77653e-63 V
    V(X28.X1.nINeg) = 0 V
    V(X28.X1.nIPos) = 260.014 fV
    V(X28.X1.nRVFit) = 1.8 V
    V(X28.X1.nVCR1) = 454.374 nV
    V(X28.X1.nVCtrl) = 1.8 V
    V(X28.X1.nVDec) = 1.77457e-60 V
    V(X28.X1.nVTMR) = 1.8 V
    I(X28.X1.vISample:p) = -25.995 aA
    V(X29.NM) = 454.374 nV
    V(X29.X1.n50) = 0 V
    V(X29.X1.n51) = 0 V
    V(X29.X1.n60) = 0 V
    V(X29.X1.n61) = 0 V
    V(X29.X1.nBiStable) = 0 V
    V(X29.X1.nFeedback) = 0 V
    V(X29.X1.nINeg) = 0 V
    V(X29.X1.nIPos) = 231.593 fV
    V(X29.X1.nRVFit) = 1.8 V
    V(X29.X1.nVCR1) = 454.374 nV
    V(X29.X1.nVCtrl) = 1.8 V
    V(X29.X1.nVDec) = 0 V
    V(X29.X1.nVTMR) = 1.8 V
    I(X29.X1.vISample:p) = -23.1537 aA
    V(X30.NM) = 454.374 nV
    V(X30.X1.n50) = 0 V
    V(X30.X1.n51) = 0 V
    V(X30.X1.n60) = 0 V
    V(X30.X1.n61) = 0 V
    V(X30.X1.nBiStable) = 0 V
    V(X30.X1.nFeedback) = 0 V
    V(X30.X1.nINeg) = 0 V
    V(X30.X1.nIPos) = 231.593 fV
    V(X30.X1.nRVFit) = 1.8 V
    V(X30.X1.nVCR1) = 454.374 nV
    V(X30.X1.nVCtrl) = 1.8 V
    V(X30.X1.nVDec) = 0 V
    V(X30.X1.nVTMR) = 1.8 V
    I(X30.X1.vISample:p) = -23.1537 aA
    V(X31.NM) = 454.374 nV
    V(X31.X1.n50) = 0 V
    V(X31.X1.n51) = 0 V
    V(X31.X1.n60) = 0 V
    V(X31.X1.n61) = 0 V
    V(X31.X1.nBiStable) = -493.552e-180 V
    V(X31.X1.nFeedback) = -60.248e-183 V
    V(X31.X1.nINeg) = 0 V
    V(X31.X1.nIPos) = 231.593 fV
    V(X31.X1.nRVFit) = 1.8 V
    V(X31.X1.nVCR1) = 454.374 nV
    V(X31.X1.nVCtrl) = 1.8 V
    V(X31.X1.nVDec) = 0 V
    V(X31.X1.nVTMR) = 1.8 V
    I(X31.X1.vISample:p) = -23.1537 aA
    V(X32.NM) = 454.374 nV
    V(X32.X1.n50) = 0 V
    V(X32.X1.n51) = 0 V
    V(X32.X1.n60) = 0 V
    V(X32.X1.n61) = 0 V
    V(X32.X1.nBiStable) = -266.4e-258 V
    V(X32.X1.nFeedback) = -32.5195e-261 V
    V(X32.X1.nINeg) = 0 V
    V(X32.X1.nIPos) = 256.239 fV
    V(X32.X1.nRVFit) = 1.8 V
    V(X32.X1.nVCR1) = 454.374 nV
    V(X32.X1.nVCtrl) = 1.8 V
    V(X32.X1.nVDec) = 0 V
    V(X32.X1.nVTMR) = 1.8 V
    I(X32.X1.vISample:p) = -25.6277 aA
    V(X33.NM) = 884.813 mV
    V(X33.X1.n50) = 11.7547e-27 V
    V(X33.X1.n51) = -29.0545e-39 V
    V(X33.X1.n60) = 11.7547e-27 V
    V(X33.X1.n61) = 0 V
    V(X33.X1.nBiStable) = -185.08e-36 V
    V(X33.X1.nFeedback) = -18.508e-39 V
    V(X33.X1.nINeg) = 0 V
    V(X33.X1.nIPos) = 1.06954 nV
    V(X33.X1.nRVFit) = 1.8 V
    V(X33.X1.nVCR1) = 884.813 mV
    V(X33.X1.nVCtrl) = 1.8 V
    V(X33.X1.nVDec) = 18.4876e-36 V
    V(X33.X1.nVTMR) = 1.8 V
    I(X33.X1.vISample:p) = -106.954 fA
    V(X34.NM) = 884.813 mV
    V(X34.X1.n50) = 0 V
    V(X34.X1.n51) = -29.0545e-39 V
    V(X34.X1.n60) = 0 V
    V(X34.X1.n61) = 0 V
    V(X34.X1.nBiStable) = -311.048e-36 V
    V(X34.X1.nFeedback) = -31.1048e-39 V
    V(X34.X1.nINeg) = 0 V
    V(X34.X1.nIPos) = 1.06954 nV
    V(X34.X1.nRVFit) = 1.8 V
    V(X34.X1.nVCR1) = 884.813 mV
    V(X34.X1.nVCtrl) = 1.8 V
    V(X34.X1.nVDec) = 31.0706e-36 V
    V(X34.X1.nVTMR) = 1.8 V
    I(X34.X1.vISample:p) = -106.954 fA
    V(X35.NM) = 884.813 mV
    V(X35.X1.n50) = 11.7547e-27 V
    V(X35.X1.n51) = -29.0487e-39 V
    V(X35.X1.n60) = 11.7547e-27 V
    V(X35.X1.n61) = 0 V
    V(X35.X1.nBiStable) = -185.063e-36 V
    V(X35.X1.nFeedback) = -18.5063e-39 V
    V(X35.X1.nINeg) = 0 V
    V(X35.X1.nIPos) = 1.06954 nV
    V(X35.X1.nRVFit) = 1.8 V
    V(X35.X1.nVCR1) = 884.813 mV
    V(X35.X1.nVCtrl) = 1.8 V
    V(X35.X1.nVDec) = 18.486e-36 V
    V(X35.X1.nVTMR) = 1.8 V
    I(X35.X1.vISample:p) = -106.954 fA
    V(X36.NM) = 884.814 mV
    V(X36.X1.n50) = -7.38323e-24 V
    V(X36.X1.n51) = 7.38324 pV
    V(X36.X1.n60) = 0 V
    V(X36.X1.n61) = 7.38324 pV
    V(X36.X1.nBiStable) = 10 V
    V(X36.X1.nFeedback) = 909.091 mV
    V(X36.X1.nINeg) = 0 V
    V(X36.X1.nIPos) = 1.85425 uV
    V(X36.X1.nRVFit) = 4.5 V
    V(X36.X1.nVCR1) = 884.813 mV
    V(X36.X1.nVCtrl) = 4.5 V
    V(X36.X1.nVDec) = -13.6903 aV
    V(X36.X1.nVTMR) = 4.5 V
    I(X36.X1.vISample:p) = -185.425 pA
    V(X37.NM) = 884.813 mV
    V(X37.X1.n50) = 11.7547e-27 V
    V(X37.X1.n51) = -29.0545e-39 V
    V(X37.X1.n60) = 11.7547e-27 V
    V(X37.X1.n61) = 0 V
    V(X37.X1.nBiStable) = -185.076e-36 V
    V(X37.X1.nFeedback) = -18.5076e-39 V
    V(X37.X1.nINeg) = 0 V
    V(X37.X1.nIPos) = 1.06954 nV
    V(X37.X1.nRVFit) = 1.8 V
    V(X37.X1.nVCR1) = 884.813 mV
    V(X37.X1.nVCtrl) = 1.8 V
    V(X37.X1.nVDec) = 18.4872e-36 V
    V(X37.X1.nVTMR) = 1.8 V
    I(X37.X1.vISample:p) = -106.954 fA
    V(X38.NM) = 884.813 mV
    V(X38.X1.n50) = 0 V
    V(X38.X1.n51) = -29.0545e-39 V
    V(X38.X1.n60) = 0 V
    V(X38.X1.n61) = 0 V
    V(X38.X1.nBiStable) = -311.055e-36 V
    V(X38.X1.nFeedback) = -31.1055e-39 V
    V(X38.X1.nINeg) = 0 V
    V(X38.X1.nIPos) = 1.06954 nV
    V(X38.X1.nRVFit) = 1.8 V
    V(X38.X1.nVCR1) = 884.813 mV
    V(X38.X1.nVCtrl) = 1.8 V
    V(X38.X1.nVDec) = 31.0712e-36 V
    V(X38.X1.nVTMR) = 1.8 V
    I(X38.X1.vISample:p) = -106.954 fA
    V(X39.NM) = 884.813 mV
    V(X39.X1.n50) = 11.7547e-27 V
    V(X39.X1.n51) = -29.0545e-39 V
    V(X39.X1.n60) = 11.7547e-27 V
    V(X39.X1.n61) = 0 V
    V(X39.X1.nBiStable) = -185.076e-36 V
    V(X39.X1.nFeedback) = -18.5076e-39 V
    V(X39.X1.nINeg) = 0 V
    V(X39.X1.nIPos) = 1.06954 nV
    V(X39.X1.nRVFit) = 1.8 V
    V(X39.X1.nVCR1) = 884.813 mV
    V(X39.X1.nVCtrl) = 1.8 V
    V(X39.X1.nVDec) = 18.4872e-36 V
    V(X39.X1.nVTMR) = 1.8 V
    I(X39.X1.vISample:p) = -106.954 fA
    V(X40.NM) = 884.813 mV
    V(X40.X1.n50) = 0 V
    V(X40.X1.n51) = 0 V
    V(X40.X1.n60) = 0 V
    V(X40.X1.n61) = 0 V
    V(X40.X1.nBiStable) = 0 V
    V(X40.X1.nFeedback) = 0 V
    V(X40.X1.nINeg) = 0 V
    V(X40.X1.nIPos) = 23.9807 fV
    V(X40.X1.nRVFit) = 1.8 V
    V(X40.X1.nVCR1) = 884.813 mV
    V(X40.X1.nVCtrl) = 1.8 V
    V(X40.X1.nVDec) = 0 V
    V(X40.X1.nVTMR) = 1.8 V
    I(X40.X1.vISample:p) = -2.40498 aA
    V(X41.NM) = 884.813 mV
    V(X41.X1.n50) = 11.7547e-27 V
    V(X41.X1.n51) = -29.0545e-39 V
    V(X41.X1.n60) = 11.7547e-27 V
    V(X41.X1.n61) = 0 V
    V(X41.X1.nBiStable) = -185.087e-36 V
    V(X41.X1.nFeedback) = -18.5087e-39 V
    V(X41.X1.nINeg) = 0 V
    V(X41.X1.nIPos) = 1.06954 nV
    V(X41.X1.nRVFit) = 1.8 V
    V(X41.X1.nVCR1) = 884.813 mV
    V(X41.X1.nVCtrl) = 1.8 V
    V(X41.X1.nVDec) = 18.4884e-36 V
    V(X41.X1.nVTMR) = 1.8 V
    I(X41.X1.vISample:p) = -106.954 fA
    V(X42.NM) = 884.813 mV
    V(X42.X1.n50) = 0 V
    V(X42.X1.n51) = -29.0545e-39 V
    V(X42.X1.n60) = 0 V
    V(X42.X1.n61) = 0 V
    V(X42.X1.nBiStable) = -311.053e-36 V
    V(X42.X1.nFeedback) = -31.1053e-39 V
    V(X42.X1.nINeg) = 0 V
    V(X42.X1.nIPos) = 1.06954 nV
    V(X42.X1.nRVFit) = 1.8 V
    V(X42.X1.nVCR1) = 884.813 mV
    V(X42.X1.nVCtrl) = 1.8 V
    V(X42.X1.nVDec) = 31.071e-36 V
    V(X42.X1.nVTMR) = 1.8 V
    I(X42.X1.vISample:p) = -106.954 fA
    V(X43.NM) = 884.813 mV
    V(X43.X1.n50) = 11.7547e-27 V
    V(X43.X1.n51) = -29.0545e-39 V
    V(X43.X1.n60) = 11.7547e-27 V
    V(X43.X1.n61) = 0 V
    V(X43.X1.nBiStable) = -185.073e-36 V
    V(X43.X1.nFeedback) = -18.5073e-39 V
    V(X43.X1.nINeg) = 0 V
    V(X43.X1.nIPos) = 1.06954 nV
    V(X43.X1.nRVFit) = 1.8 V
    V(X43.X1.nVCR1) = 884.813 mV
    V(X43.X1.nVCtrl) = 1.8 V
    V(X43.X1.nVDec) = 18.4869e-36 V
    V(X43.X1.nVTMR) = 1.8 V
    I(X43.X1.vISample:p) = -106.954 fA
    V(X44.NM) = 884.814 mV
    V(X44.X1.n50) = -7.38323e-24 V
    V(X44.X1.n51) = 7.38324 pV
    V(X44.X1.n60) = 0 V
    V(X44.X1.n61) = 7.38324 pV
    V(X44.X1.nBiStable) = 10 V
    V(X44.X1.nFeedback) = 909.091 mV
    V(X44.X1.nINeg) = 0 V
    V(X44.X1.nIPos) = 1.85425 uV
    V(X44.X1.nRVFit) = 4.5 V
    V(X44.X1.nVCR1) = 884.813 mV
    V(X44.X1.nVCtrl) = 4.5 V
    V(X44.X1.nVDec) = -13.6903 aV
    V(X44.X1.nVTMR) = 4.5 V
    I(X44.X1.vISample:p) = -185.425 pA
    V(X45.NM) = 884.813 mV
    V(X45.X1.n50) = 11.7547e-27 V
    V(X45.X1.n51) = -29.0545e-39 V
    V(X45.X1.n60) = 11.7547e-27 V
    V(X45.X1.n61) = 0 V
    V(X45.X1.nBiStable) = -185.083e-36 V
    V(X45.X1.nFeedback) = -18.5083e-39 V
    V(X45.X1.nINeg) = 0 V
    V(X45.X1.nIPos) = 1.06954 nV
    V(X45.X1.nRVFit) = 1.8 V
    V(X45.X1.nVCR1) = 884.813 mV
    V(X45.X1.nVCtrl) = 1.8 V
    V(X45.X1.nVDec) = 18.4879e-36 V
    V(X45.X1.nVTMR) = 1.8 V
    I(X45.X1.vISample:p) = -106.954 fA
    V(X46.NM) = 884.813 mV
    V(X46.X1.n50) = 11.7547e-27 V
    V(X46.X1.n51) = -29.0545e-39 V
    V(X46.X1.n60) = 11.7547e-27 V
    V(X46.X1.n61) = 0 V
    V(X46.X1.nBiStable) = -185.084e-36 V
    V(X46.X1.nFeedback) = -18.5084e-39 V
    V(X46.X1.nINeg) = 0 V
    V(X46.X1.nIPos) = 1.06954 nV
    V(X46.X1.nRVFit) = 1.8 V
    V(X46.X1.nVCR1) = 884.813 mV
    V(X46.X1.nVCtrl) = 1.8 V
    V(X46.X1.nVDec) = 18.488e-36 V
    V(X46.X1.nVTMR) = 1.8 V
    I(X46.X1.vISample:p) = -106.954 fA
    V(X47.NM) = 884.813 mV
    V(X47.X1.n50) = 0 V
    V(X47.X1.n51) = -29.0545e-39 V
    V(X47.X1.n60) = 0 V
    V(X47.X1.n61) = 0 V
    V(X47.X1.nBiStable) = -311.061e-36 V
    V(X47.X1.nFeedback) = -31.1061e-39 V
    V(X47.X1.nINeg) = 0 V
    V(X47.X1.nIPos) = 1.06954 nV
    V(X47.X1.nRVFit) = 1.8 V
    V(X47.X1.nVCR1) = 884.813 mV
    V(X47.X1.nVCtrl) = 1.8 V
    V(X47.X1.nVDec) = 31.0718e-36 V
    V(X47.X1.nVTMR) = 1.8 V
    I(X47.X1.vISample:p) = -106.954 fA
    V(X48.NM) = 884.813 mV
    V(X48.X1.n50) = 0 V
    V(X48.X1.n51) = 0 V
    V(X48.X1.n60) = 0 V
    V(X48.X1.n61) = 0 V
    V(X48.X1.nBiStable) = 0 V
    V(X48.X1.nFeedback) = 0 V
    V(X48.X1.nINeg) = 0 V
    V(X48.X1.nIPos) = 23.9807 fV
    V(X48.X1.nRVFit) = 1.8 V
    V(X48.X1.nVCR1) = 884.813 mV
    V(X48.X1.nVCtrl) = 1.8 V
    V(X48.X1.nVDec) = 0 V
    V(X48.X1.nVTMR) = 1.8 V
    I(X48.X1.vISample:p) = -2.40498 aA
    V(X49.NM) = 884.813 mV
    V(X49.X1.n50) = 11.7547e-27 V
    V(X49.X1.n51) = -29.0545e-39 V
    V(X49.X1.n60) = 11.7547e-27 V
    V(X49.X1.n61) = 0 V
    V(X49.X1.nBiStable) = -185.086e-36 V
    V(X49.X1.nFeedback) = -18.5086e-39 V
    V(X49.X1.nINeg) = 0 V
    V(X49.X1.nIPos) = 1.06954 nV
    V(X49.X1.nRVFit) = 1.8 V
    V(X49.X1.nVCR1) = 884.813 mV
    V(X49.X1.nVCtrl) = 1.8 V
    V(X49.X1.nVDec) = 18.4882e-36 V
    V(X49.X1.nVTMR) = 1.8 V
    I(X49.X1.vISample:p) = -106.954 fA
    V(X50.NM) = 884.813 mV
    V(X50.X1.n50) = 0 V
    V(X50.X1.n51) = -29.0545e-39 V
    V(X50.X1.n60) = 0 V
    V(X50.X1.n61) = 0 V
    V(X50.X1.nBiStable) = -311.052e-36 V
    V(X50.X1.nFeedback) = -31.1052e-39 V
    V(X50.X1.nINeg) = 0 V
    V(X50.X1.nIPos) = 1.06954 nV
    V(X50.X1.nRVFit) = 1.8 V
    V(X50.X1.nVCR1) = 884.813 mV
    V(X50.X1.nVCtrl) = 1.8 V
    V(X50.X1.nVDec) = 31.071e-36 V
    V(X50.X1.nVTMR) = 1.8 V
    I(X50.X1.vISample:p) = -106.954 fA
    V(X51.NM) = 884.813 mV
    V(X51.X1.n50) = 0 V
    V(X51.X1.n51) = -29.0545e-39 V
    V(X51.X1.n60) = 0 V
    V(X51.X1.n61) = 0 V
    V(X51.X1.nBiStable) = -311.049e-36 V
    V(X51.X1.nFeedback) = -31.1049e-39 V
    V(X51.X1.nINeg) = 0 V
    V(X51.X1.nIPos) = 1.06954 nV
    V(X51.X1.nRVFit) = 1.8 V
    V(X51.X1.nVCR1) = 884.813 mV
    V(X51.X1.nVCtrl) = 1.8 V
    V(X51.X1.nVDec) = 31.0707e-36 V
    V(X51.X1.nVTMR) = 1.8 V
    I(X51.X1.vISample:p) = -106.954 fA
    V(X52.NM) = 884.814 mV
    V(X52.X1.n50) = -7.38323e-24 V
    V(X52.X1.n51) = 7.38324 pV
    V(X52.X1.n60) = 0 V
    V(X52.X1.n61) = 7.38324 pV
    V(X52.X1.nBiStable) = 10 V
    V(X52.X1.nFeedback) = 909.091 mV
    V(X52.X1.nINeg) = 0 V
    V(X52.X1.nIPos) = 1.85425 uV
    V(X52.X1.nRVFit) = 4.5 V
    V(X52.X1.nVCR1) = 884.813 mV
    V(X52.X1.nVCtrl) = 4.5 V
    V(X52.X1.nVDec) = -13.6903 aV
    V(X52.X1.nVTMR) = 4.5 V
    I(X52.X1.vISample:p) = -185.425 pA
    V(X53.NM) = 884.813 mV
    V(X53.X1.n50) = 11.7547e-27 V
    V(X53.X1.n51) = -29.0545e-39 V
    V(X53.X1.n60) = 11.7547e-27 V
    V(X53.X1.n61) = 0 V
    V(X53.X1.nBiStable) = -185.082e-36 V
    V(X53.X1.nFeedback) = -18.5082e-39 V
    V(X53.X1.nINeg) = 0 V
    V(X53.X1.nIPos) = 1.06954 nV
    V(X53.X1.nRVFit) = 1.8 V
    V(X53.X1.nVCR1) = 884.813 mV
    V(X53.X1.nVCtrl) = 1.8 V
    V(X53.X1.nVDec) = 18.4878e-36 V
    V(X53.X1.nVTMR) = 1.8 V
    I(X53.X1.vISample:p) = -106.954 fA
    V(X54.NM) = 884.813 mV
    V(X54.X1.n50) = 11.7547e-27 V
    V(X54.X1.n51) = -29.0545e-39 V
    V(X54.X1.n60) = 11.7547e-27 V
    V(X54.X1.n61) = 0 V
    V(X54.X1.nBiStable) = -185.084e-36 V
    V(X54.X1.nFeedback) = -18.5084e-39 V
    V(X54.X1.nINeg) = 0 V
    V(X54.X1.nIPos) = 1.06954 nV
    V(X54.X1.nRVFit) = 1.8 V
    V(X54.X1.nVCR1) = 884.813 mV
    V(X54.X1.nVCtrl) = 1.8 V
    V(X54.X1.nVDec) = 18.4881e-36 V
    V(X54.X1.nVTMR) = 1.8 V
    I(X54.X1.vISample:p) = -106.954 fA
    V(X55.NM) = 884.813 mV
    V(X55.X1.n50) = 11.7547e-27 V
    V(X55.X1.n51) = -29.0545e-39 V
    V(X55.X1.n60) = 11.7547e-27 V
    V(X55.X1.n61) = 0 V
    V(X55.X1.nBiStable) = -185.082e-36 V
    V(X55.X1.nFeedback) = -18.5082e-39 V
    V(X55.X1.nINeg) = 0 V
    V(X55.X1.nIPos) = 1.06954 nV
    V(X55.X1.nRVFit) = 1.8 V
    V(X55.X1.nVCR1) = 884.813 mV
    V(X55.X1.nVCtrl) = 1.8 V
    V(X55.X1.nVDec) = 18.4879e-36 V
    V(X55.X1.nVTMR) = 1.8 V
    I(X55.X1.vISample:p) = -106.954 fA
    V(X56.NM) = 884.813 mV
    V(X56.X1.n50) = 0 V
    V(X56.X1.n51) = 0 V
    V(X56.X1.n60) = 0 V
    V(X56.X1.n61) = 0 V
    V(X56.X1.nBiStable) = -18.9911e-66 V
    V(X56.X1.nFeedback) = -2.31825e-69 V
    V(X56.X1.nINeg) = 0 V
    V(X56.X1.nIPos) = 23.9807 fV
    V(X56.X1.nRVFit) = 1.8 V
    V(X56.X1.nVCR1) = 884.813 mV
    V(X56.X1.nVCtrl) = 1.8 V
    V(X56.X1.nVDec) = 0 V
    V(X56.X1.nVTMR) = 1.8 V
    I(X56.X1.vISample:p) = -2.40498 aA
    V(X57.NM) = 884.813 mV
    V(X57.X1.n50) = 11.7547e-27 V
    V(X57.X1.n51) = -29.0545e-39 V
    V(X57.X1.n60) = 11.7547e-27 V
    V(X57.X1.n61) = 0 V
    V(X57.X1.nBiStable) = -185.088e-36 V
    V(X57.X1.nFeedback) = -18.5088e-39 V
    V(X57.X1.nINeg) = 0 V
    V(X57.X1.nIPos) = 1.06954 nV
    V(X57.X1.nRVFit) = 1.8 V
    V(X57.X1.nVCR1) = 884.813 mV
    V(X57.X1.nVCtrl) = 1.8 V
    V(X57.X1.nVDec) = 18.4884e-36 V
    V(X57.X1.nVTMR) = 1.8 V
    I(X57.X1.vISample:p) = -106.954 fA
    V(X58.NM) = 884.813 mV
    V(X58.X1.n50) = 11.7547e-27 V
    V(X58.X1.n51) = -29.0545e-39 V
    V(X58.X1.n60) = 11.7547e-27 V
    V(X58.X1.n61) = 0 V
    V(X58.X1.nBiStable) = -185.076e-36 V
    V(X58.X1.nFeedback) = -18.5076e-39 V
    V(X58.X1.nINeg) = 0 V
    V(X58.X1.nIPos) = 1.06954 nV
    V(X58.X1.nRVFit) = 1.8 V
    V(X58.X1.nVCR1) = 884.813 mV
    V(X58.X1.nVCtrl) = 1.8 V
    V(X58.X1.nVDec) = 18.4873e-36 V
    V(X58.X1.nVTMR) = 1.8 V
    I(X58.X1.vISample:p) = -106.954 fA
    V(X59.NM) = 884.813 mV
    V(X59.X1.n50) = 11.7547e-27 V
    V(X59.X1.n51) = -29.0545e-39 V
    V(X59.X1.n60) = 11.7547e-27 V
    V(X59.X1.n61) = 0 V
    V(X59.X1.nBiStable) = -185.072e-36 V
    V(X59.X1.nFeedback) = -18.5072e-39 V
    V(X59.X1.nINeg) = 0 V
    V(X59.X1.nIPos) = 1.06954 nV
    V(X59.X1.nRVFit) = 1.8 V
    V(X59.X1.nVCR1) = 884.813 mV
    V(X59.X1.nVCtrl) = 1.8 V
    V(X59.X1.nVDec) = 18.4869e-36 V
    V(X59.X1.nVTMR) = 1.8 V
    I(X59.X1.vISample:p) = -106.954 fA
    V(X60.NM) = 884.814 mV
    V(X60.X1.n50) = -7.38323e-24 V
    V(X60.X1.n51) = 7.38324 pV
    V(X60.X1.n60) = 0 V
    V(X60.X1.n61) = 7.38324 pV
    V(X60.X1.nBiStable) = 10 V
    V(X60.X1.nFeedback) = 909.091 mV
    V(X60.X1.nINeg) = 0 V
    V(X60.X1.nIPos) = 1.85425 uV
    V(X60.X1.nRVFit) = 4.5 V
    V(X60.X1.nVCR1) = 884.813 mV
    V(X60.X1.nVCtrl) = 4.5 V
    V(X60.X1.nVDec) = -13.6903 aV
    V(X60.X1.nVTMR) = 4.5 V
    I(X60.X1.vISample:p) = -185.425 pA
    V(X61.NM) = 884.813 mV
    V(X61.X1.n50) = 0 V
    V(X61.X1.n51) = -29.0545e-39 V
    V(X61.X1.n60) = 0 V
    V(X61.X1.n61) = 0 V
    V(X61.X1.nBiStable) = -311.06e-36 V
    V(X61.X1.nFeedback) = -31.106e-39 V
    V(X61.X1.nINeg) = 0 V
    V(X61.X1.nIPos) = 1.06954 nV
    V(X61.X1.nRVFit) = 1.8 V
    V(X61.X1.nVCR1) = 884.813 mV
    V(X61.X1.nVCtrl) = 1.8 V
    V(X61.X1.nVDec) = 31.0718e-36 V
    V(X61.X1.nVTMR) = 1.8 V
    I(X61.X1.vISample:p) = -106.954 fA
    V(X62.NM) = 884.813 mV
    V(X62.X1.n50) = 0 V
    V(X62.X1.n51) = -29.0545e-39 V
    V(X62.X1.n60) = 0 V
    V(X62.X1.n61) = 0 V
    V(X62.X1.nBiStable) = -311.062e-36 V
    V(X62.X1.nFeedback) = -31.1062e-39 V
    V(X62.X1.nINeg) = 0 V
    V(X62.X1.nIPos) = 1.06954 nV
    V(X62.X1.nRVFit) = 1.8 V
    V(X62.X1.nVCR1) = 884.813 mV
    V(X62.X1.nVCtrl) = 1.8 V
    V(X62.X1.nVDec) = 31.072e-36 V
    V(X62.X1.nVTMR) = 1.8 V
    I(X62.X1.vISample:p) = -106.954 fA
    V(X63.NM) = 884.813 mV
    V(X63.X1.n50) = 0 V
    V(X63.X1.n51) = -29.0545e-39 V
    V(X63.X1.n60) = 0 V
    V(X63.X1.n61) = 0 V
    V(X63.X1.nBiStable) = -311.061e-36 V
    V(X63.X1.nFeedback) = -31.1061e-39 V
    V(X63.X1.nINeg) = 0 V
    V(X63.X1.nIPos) = 1.06954 nV
    V(X63.X1.nRVFit) = 1.8 V
    V(X63.X1.nVCR1) = 884.813 mV
    V(X63.X1.nVCtrl) = 1.8 V
    V(X63.X1.nVDec) = 31.0719e-36 V
    V(X63.X1.nVTMR) = 1.8 V
    I(X63.X1.vISample:p) = -106.954 fA
    V(X64.NM) = 884.813 mV
    V(X64.X1.n50) = 0 V
    V(X64.X1.n51) = 0 V
    V(X64.X1.n60) = 0 V
    V(X64.X1.n61) = 0 V
    V(X64.X1.nBiStable) = -18.9911e-66 V
    V(X64.X1.nFeedback) = -2.31825e-69 V
    V(X64.X1.nINeg) = 0 V
    V(X64.X1.nIPos) = 23.9807 fV
    V(X64.X1.nRVFit) = 1.8 V
    V(X64.X1.nVCR1) = 884.813 mV
    V(X64.X1.nVCtrl) = 1.8 V
    V(X64.X1.nVDec) = 0 V
    V(X64.X1.nVTMR) = 1.8 V
    I(X64.X1.vISample:p) = -2.40498 aA
    V(X514.ENB) = 1.59997 V
    V(X515.ENB) = 1.59997 V
    V(X516.ENB) = 1.59997 V
    V(X517.ENB) = 1.59997 V
    V(X518.ENB) = 1.59997 V
    V(X519.ENB) = 1.59997 V
    V(X520.ENB) = 1.59997 V
    V(X521.ENB) = 5.64022 uV
    V(X522.ENB) = 1.59997 V
    V(X523.ENB) = 1.59997 V
    V(X524.ENB) = 1.59997 V
    V(X525.ENB) = 1.59997 V
    V(X526.ENB) = 1.59997 V
    V(X527.ENB) = 1.59997 V
    V(X528.ENB) = 1.59997 V
    V(X529.ENB) = 1.59997 V
    V(X590.ENB) = 1.59997 V
    V(X591.ENB) = 1.59997 V
    V(X592.ENB) = 4.14906 uV
    V(X593.ENB) = 1.59997 V
    V(X594.ENB) = 1.59997 V
    V(X595.ENB) = 1.59997 V
    V(X596.ENB) = 1.59997 V
    V(X599.ENB) = 1.59997 V
    V(X679.ENB) = 1.59997 V
    V(X680.ENB) = 1.59997 V
    V(X681.ENB) = 1.59997 V
    V(X682.ENB) = 4.14906 uV
    V(X683.ENB) = 1.59997 V
    V(X684.ENB) = 1.59997 V
    V(X685.ENB) = 1.59997 V
    V(X686.ENB) = 1.59997 V


Most positive signals:
    V(X4.X1.nBiStable) = 10 V
    I(X36.X1.eMux3:bs_p1_bs_p2_flow) = 909.091 uA

Most negative signals:
    V(X60.X1.nVDec) = -13.6903 aV
    I(X36.X1.eBiStable:p) = -909.091 uA

Smallest signals:
    V(WL4T) = 0 V
    I(X64.X1.eISensBin1:bs_p1_bs_p2_flow) = 0 A


Instance: X1.M_i_1 of BCTM
Model: PMOS
Primitive: bsim4
          d : V(X1.NM) = 884.813 mV
          g : V(WL1) = 703.042 mV
          s : V(SL1) = 884.814 mV
          b : V(SL1) = 884.814 mV
     region = off
   reversed = no
        ids = -106.952 fA
        vgs = -181.772 mV
        vds = -1.00709 uV
        vbs = 0 V
        vgd = -181.771 mV
        vdb = -1.00709 uV
        vgb = -181.772 mV
        vth = -586.994 mV
      vdsat = -44.3554 mV
         gm = 2.82549 pS
        gds = 106.198 nS
       gmbs = 731.963 fS
    betaeff = 40.2562 mA/V^2
        cjd = 6.315 fF
        cjs = 10.104 fF
        cgg = 14.1942 fF
        cgd = -5.74623 fF
        cgs = -5.74633 fF
        cgb = -2.70165 fF
        cdg = -5.74623 fF
        cdd = 5.74623 fF
        cds = 2.58253e-21 F
        cdb = -3.41341e-21 F
        csg = -5.74623 fF
        csd = 6.10897e-21 F
        css = 5.74623 fF
        csb = -3.41347e-21 F
        cbg = -2.70174 fF
        cbd = -12.6682e-21 F
        cbs = 91.4277e-21 F
        cbb = 2.70166 fF
     covlgs = 5.74622 fF/m
     covlgd = 5.74622 fF/m
     covlgb = 1.28 aF/m
      cggbo = 2.70048 fF
      cgdbo = -6.36335e-21 F
      cgsbo = -103.407e-21 F
      cbgbo = -2.70046 fF
      cbdbo = -12.6682e-21 F
      cbsbo = 91.4277e-21 F
      cdgbo = -12.0917e-21 F
      cddbo = 12.9226e-21 F
      cdsbo = 2.58253e-21 F
        ron = 9.41628 MOhm
         id = -106.952 fA
      ibulk = 4.4071 aA
        pwr = 107.71e-21 W
   gmoverid = 26.4184 1/V
       ueff = 8.40623e-03
      rdeff = 0 Ohm
      rseff = 0 Ohm
       rgbd = 0 Ohm
      igidl = -0 A
      igisl = -0 A
       igdt = -4.13978 aA
        igd = -0 A
        igs = -0 A
        igb = -4.01774 aA
     igbacc = -4.01774 aA
     igbinv = -4.01774 aA
       igcs = -61.0199e-21 A
       igcd = -61.0199e-21 A
       isub = 50.2652e-30 A
        gbs = 1.05372 pS
        gbd = 1.38662 pS
         qg = -4.97981 fCoul
         qd = 738.294 aCoul
         qs = 738.297 aCoul
         qb = 3.50322 fCoul
        qjd = 6.35975e-21 Coul
        qjs = -0 Coul
     qgdovl = -738.293 aCoul
     qgsovl = -738.296 aCoul
        qgi = -4.97981 fCoul
        qdi = 738.294 aCoul
        qsi = 738.297 aCoul
        qbi = 3.50322 fCoul
        ide = -106.954 fA
        ige = -4.13978 aA
        ise = 106.953 fA
        ibe = 5.41419 aA
        idb = 1.39645 aA
        isb = -0 A
        vsb = -0 V
        gmb = 731.963 fS
        vgt = 405.222 mV
       vdss = -44.3554 mV
  vsat_marg = -44.3544 mV
  self_gain = 26.6059e-06
       rout = 9.41639 MOhm
       beff = 1.30269 pA/V^2
        fug = 31.6813 Hz
      rgate = 33.68 Ohm
     vearly = 1.00712 uV

Instance: X2.M_i_1 of BCTM
Model: PMOS
Primitive: bsim4
          d : V(X2.NM) = 884.813 mV
          g : V(WL2) = 703.042 mV
          s : V(SL1) = 884.814 mV
          b : V(SL1) = 884.814 mV
     region = off
   reversed = no
        ids = -106.952 fA
        vgs = -181.772 mV
        vds = -1.00709 uV
        vbs = 0 V
        vgd = -181.771 mV
        vdb = -1.00709 uV
        vgb = -181.772 mV
        vth = -586.994 mV
      vdsat = -44.3554 mV
         gm = 2.82549 pS
        gds = 106.198 nS
       gmbs = 731.963 fS
    betaeff = 40.2562 mA/V^2
        cjd = 6.315 fF
        cjs = 10.104 fF
        cgg = 14.1942 fF
        cgd = -5.74623 fF
        cgs = -5.74633 fF
        cgb = -2.70165 fF
        cdg = -5.74623 fF
        cdd = 5.74623 fF
        cds = 2.58253e-21 F
        cdb = -3.41341e-21 F
        csg = -5.74623 fF
        csd = 6.10897e-21 F
        css = 5.74623 fF
        csb = -3.41347e-21 F
        cbg = -2.70174 fF
        cbd = -12.6682e-21 F
        cbs = 91.4277e-21 F
        cbb = 2.70166 fF
     covlgs = 5.74622 fF/m
     covlgd = 5.74622 fF/m
     covlgb = 1.28 aF/m
      cggbo = 2.70048 fF
      cgdbo = -6.36335e-21 F
      cgsbo = -103.407e-21 F
      cbgbo = -2.70046 fF
      cbdbo = -12.6682e-21 F
      cbsbo = 91.4277e-21 F
      cdgbo = -12.0917e-21 F
      cddbo = 12.9226e-21 F
      cdsbo = 2.58253e-21 F
        ron = 9.41628 MOhm
         id = -106.952 fA
      ibulk = 4.4071 aA
        pwr = 107.71e-21 W
   gmoverid = 26.4184 1/V
       ueff = 8.40623e-03
      rdeff = 0 Ohm
      rseff = 0 Ohm
       rgbd = 0 Ohm
      igidl = -0 A
      igisl = -0 A
       igdt = -4.13978 aA
        igd = -0 A
        igs = -0 A
        igb = -4.01774 aA
     igbacc = -4.01774 aA
     igbinv = -4.01774 aA
       igcs = -61.0199e-21 A
       igcd = -61.0199e-21 A
       isub = 50.2652e-30 A
        gbs = 1.05372 pS
        gbd = 1.38662 pS
         qg = -4.97981 fCoul
         qd = 738.294 aCoul
         qs = 738.297 aCoul
         qb = 3.50322 fCoul
        qjd = 6.35975e-21 Coul
        qjs = -0 Coul
     qgdovl = -738.293 aCoul
     qgsovl = -738.296 aCoul
        qgi = -4.97981 fCoul
        qdi = 738.294 aCoul
        qsi = 738.297 aCoul
        qbi = 3.50322 fCoul
        ide = -106.954 fA
        ige = -4.13978 aA
        ise = 106.953 fA
        ibe = 5.41419 aA
        idb = 1.39645 aA
        isb = -0 A
        vsb = -0 V
        gmb = 731.963 fS
        vgt = 405.222 mV
       vdss = -44.3554 mV
  vsat_marg = -44.3544 mV
  self_gain = 26.6059e-06
       rout = 9.41639 MOhm
       beff = 1.30269 pA/V^2
        fug = 31.6813 Hz
      rgate = 33.68 Ohm
     vearly = 1.00712 uV

Instance: X3.M_i_1 of BCTM
Model: PMOS
Primitive: bsim4
          d : V(X3.NM) = 884.813 mV
          g : V(WL3) = 703.042 mV
          s : V(SL1) = 884.814 mV
          b : V(SL1) = 884.814 mV
     region = off
   reversed = no
        ids = -106.952 fA
        vgs = -181.772 mV
        vds = -1.00709 uV
        vbs = 0 V
        vgd = -181.771 mV
        vdb = -1.00709 uV
        vgb = -181.772 mV
        vth = -586.994 mV
      vdsat = -44.3554 mV
         gm = 2.82549 pS
        gds = 106.198 nS
       gmbs = 731.963 fS
    betaeff = 40.2562 mA/V^2
        cjd = 6.315 fF
        cjs = 10.104 fF
        cgg = 14.1942 fF
        cgd = -5.74623 fF
        cgs = -5.74633 fF
        cgb = -2.70165 fF
        cdg = -5.74623 fF
        cdd = 5.74623 fF
        cds = 2.58253e-21 F
        cdb = -3.41341e-21 F
        csg = -5.74623 fF
        csd = 6.10897e-21 F
        css = 5.74623 fF
        csb = -3.41347e-21 F
        cbg = -2.70174 fF
        cbd = -12.6682e-21 F
        cbs = 91.4277e-21 F
        cbb = 2.70166 fF
     covlgs = 5.74622 fF/m
     covlgd = 5.74622 fF/m
     covlgb = 1.28 aF/m
      cggbo = 2.70048 fF
      cgdbo = -6.36335e-21 F
      cgsbo = -103.407e-21 F
      cbgbo = -2.70046 fF
      cbdbo = -12.6682e-21 F
      cbsbo = 91.4277e-21 F
      cdgbo = -12.0917e-21 F
      cddbo = 12.9226e-21 F
      cdsbo = 2.58253e-21 F
        ron = 9.41628 MOhm
         id = -106.952 fA
      ibulk = 4.4071 aA
        pwr = 107.71e-21 W
   gmoverid = 26.4184 1/V
       ueff = 8.40623e-03
      rdeff = 0 Ohm
      rseff = 0 Ohm
       rgbd = 0 Ohm
      igidl = -0 A
      igisl = -0 A
       igdt = -4.13978 aA
        igd = -0 A
        igs = -0 A
        igb = -4.01774 aA
     igbacc = -4.01774 aA
     igbinv = -4.01774 aA
       igcs = -61.0199e-21 A
       igcd = -61.0199e-21 A
       isub = 50.2652e-30 A
        gbs = 1.05372 pS
        gbd = 1.38662 pS
         qg = -4.97981 fCoul
         qd = 738.294 aCoul
         qs = 738.297 aCoul
         qb = 3.50322 fCoul
        qjd = 6.35975e-21 Coul
        qjs = -0 Coul
     qgdovl = -738.293 aCoul
     qgsovl = -738.296 aCoul
        qgi = -4.97981 fCoul
        qdi = 738.294 aCoul
        qsi = 738.297 aCoul
        qbi = 3.50322 fCoul
        ide = -106.954 fA
        ige = -4.13978 aA
        ise = 106.953 fA
        ibe = 5.41419 aA
        idb = 1.39645 aA
        isb = -0 A
        vsb = -0 V
        gmb = 731.963 fS
        vgt = 405.222 mV
       vdss = -44.3554 mV
  vsat_marg = -44.3544 mV
  self_gain = 26.6059e-06
       rout = 9.41639 MOhm
       beff = 1.30269 pA/V^2
        fug = 31.6813 Hz
      rgate = 33.68 Ohm
     vearly = 1.00712 uV

Instance: X4.M_i_1 of BCTM
Model: PMOS
Primitive: bsim4
          d : V(X4.NM) = 884.814 mV
          g : V(WL4) = 299.729 mV
          s : V(SL1) = 884.814 mV
          b : V(SL1) = 884.814 mV
     region = subth
   reversed = no
        ids = -186.509 pA
        vgs = -585.085 mV
        vds = -172.866 nV
        vbs = 0 V
        vgd = -585.085 mV
        vdb = -172.866 nV
        vgb = -585.085 mV
        vth = -586.994 mV
      vdsat = -72.8123 mV
         gm = 2.63287 nS
        gds = 1.07892 mS
       gmbs = 563.55 pS
    betaeff = 39.4422 mA/V^2
        cjd = 6.315 fF
        cjs = 10.104 fF
        cgg = 16.4414 fF
        cgd = -6.82961 fF
        cgs = -7.80972 fF
        cgb = -1.80206 fF
        cdg = -7.47966 fF
        cdd = 7.56356 fF
        cds = 200.362 aF
        cdb = -284.265 aF
        csg = -7.47966 fF
        csd = 670.282 aF
        css = 7.09364 fF
        csb = -284.266 aF
        cbg = -1.48206 fF
        cbd = -1.40424 fF
        cbs = 515.71 aF
        cbb = 2.37059 fF
     covlgs = 6.14526 fF/m
     covlgd = 6.14526 fF/m
     covlgb = 1.28 aF/m
      cggbo = 4.14959 fF
      cgdbo = -684.35 aF
      cgsbo = -1.66446 fF
      cbgbo = -1.48078 fF
      cbdbo = -1.40424 fF
      cbsbo = 515.71 aF
      cdgbo = -1.3344 fF
      cddbo = 1.41831 fF
      cdsbo = 200.362 aF
        ron = 926.852 Ohm
         id = -185.425 pA
      ibulk = 105.001 aA
        pwr = 32.0538 aW
   gmoverid = 14.1165 1/V
       ueff = 8.23626e-03
      rdeff = 0 Ohm
      rseff = 0 Ohm
       rgbd = 0 Ohm
      igidl = -0 A
      igisl = -0 A
       igdt = -2.16866 pA
        igd = -0 A
        igs = -0 A
        igb = -104.935 aA
     igbacc = -104.935 aA
     igbinv = -104.935 aA
       igcs = -1.08428 pA
       igcd = -1.08428 pA
       isub = 9.87566e-27 A
        gbs = 1.05372 pS
        gbd = 1.38663 pS
         qg = -8.55698 fCoul
         qd = 2.05281 fCoul
         qs = 2.05281 fCoul
         qb = 4.45136 fCoul
        qjd = 1.09165e-21 Coul
        qjs = -2.24354e-30 Coul
     qgdovl = -1.99993 fCoul
     qgsovl = -1.99993 fCoul
        qgi = -8.55698 fCoul
        qdi = 2.05281 fCoul
        qsi = 2.05281 fCoul
        qbi = 4.45136 fCoul
        ide = -185.425 pA
        ige = -2.16866 pA
        ise = 187.594 pA
        ibe = 105.174 aA
        idb = 239.702e-21 A
        isb = -234.076e-30 A
        vsb = -0 V
        gmb = 563.55 pS
        vgt = 1.90868 mV
       vdss = -72.8123 mV
  vsat_marg = -72.8122 mV
  self_gain = 2.44028e-06
       rout = 926.853 Ohm
       beff = 101.796 uA/V^2
        fug = 25.4865 kHz
      rgate = 33.68 Ohm
     vearly = 171.862 nV

Instance: X5.M_i_1 of BCTM
Model: PMOS
Primitive: bsim4
          d : V(X5.NM) = 884.813 mV
          g : V(WL5) = 703.042 mV
          s : V(SL1) = 884.814 mV
          b : V(SL1) = 884.814 mV
     region = off
   reversed = no
        ids = -106.952 fA
        vgs = -181.772 mV
        vds = -1.00709 uV
        vbs = 0 V
        vgd = -181.771 mV
        vdb = -1.00709 uV
        vgb = -181.772 mV
        vth = -586.994 mV
      vdsat = -44.3554 mV
         gm = 2.82549 pS
        gds = 106.198 nS
       gmbs = 731.963 fS
    betaeff = 40.2562 mA/V^2
        cjd = 6.315 fF
        cjs = 10.104 fF
        cgg = 14.1942 fF
        cgd = -5.74623 fF
        cgs = -5.74633 fF
        cgb = -2.70165 fF
        cdg = -5.74623 fF
        cdd = 5.74623 fF
        cds = 2.58253e-21 F
        cdb = -3.41341e-21 F
        csg = -5.74623 fF
        csd = 6.10897e-21 F
        css = 5.74623 fF
        csb = -3.41347e-21 F
        cbg = -2.70174 fF
        cbd = -12.6682e-21 F
        cbs = 91.4277e-21 F
        cbb = 2.70166 fF
     covlgs = 5.74622 fF/m
     covlgd = 5.74622 fF/m
     covlgb = 1.28 aF/m
      cggbo = 2.70048 fF
      cgdbo = -6.36335e-21 F
      cgsbo = -103.407e-21 F
      cbgbo = -2.70046 fF
      cbdbo = -12.6682e-21 F
      cbsbo = 91.4277e-21 F
      cdgbo = -12.0917e-21 F
      cddbo = 12.9226e-21 F
      cdsbo = 2.58253e-21 F
        ron = 9.41628 MOhm
         id = -106.952 fA
      ibulk = 4.4071 aA
        pwr = 107.71e-21 W
   gmoverid = 26.4184 1/V
       ueff = 8.40623e-03
      rdeff = 0 Ohm
      rseff = 0 Ohm
       rgbd = 0 Ohm
      igidl = -0 A
      igisl = -0 A
       igdt = -4.13978 aA
        igd = -0 A
        igs = -0 A
        igb = -4.01774 aA
     igbacc = -4.01774 aA
     igbinv = -4.01774 aA
       igcs = -61.0199e-21 A
       igcd = -61.0199e-21 A
       isub = 50.2652e-30 A
        gbs = 1.05372 pS
        gbd = 1.38662 pS
         qg = -4.97981 fCoul
         qd = 738.294 aCoul
         qs = 738.297 aCoul
         qb = 3.50322 fCoul
        qjd = 6.35975e-21 Coul
        qjs = -0 Coul
     qgdovl = -738.293 aCoul
     qgsovl = -738.296 aCoul
        qgi = -4.97981 fCoul
        qdi = 738.294 aCoul
        qsi = 738.297 aCoul
        qbi = 3.50322 fCoul
        ide = -106.954 fA
        ige = -4.13978 aA
        ise = 106.953 fA
        ibe = 5.41419 aA
        idb = 1.39645 aA
        isb = -0 A
        vsb = -0 V
        gmb = 731.963 fS
        vgt = 405.222 mV
       vdss = -44.3554 mV
  vsat_marg = -44.3544 mV
  self_gain = 26.6059e-06
       rout = 9.41639 MOhm
       beff = 1.30269 pA/V^2
        fug = 31.6813 Hz
      rgate = 33.68 Ohm
     vearly = 1.00712 uV

Instance: X6.M_i_1 of BCTM
Model: PMOS
Primitive: bsim4
          d : V(X6.NM) = 884.813 mV
          g : V(WL6) = 703.042 mV
          s : V(SL1) = 884.814 mV
          b : V(SL1) = 884.814 mV
     region = off
   reversed = no
        ids = -106.952 fA
        vgs = -181.772 mV
        vds = -1.00709 uV
        vbs = 0 V
        vgd = -181.771 mV
        vdb = -1.00709 uV
        vgb = -181.772 mV
        vth = -586.994 mV
      vdsat = -44.3554 mV
         gm = 2.82549 pS
        gds = 106.198 nS
       gmbs = 731.963 fS
    betaeff = 40.2562 mA/V^2
        cjd = 6.315 fF
        cjs = 10.104 fF
        cgg = 14.1942 fF
[...]
          n : V(NM45) = 884.813 mV
          v = 0 V
          i = -106.954 fA
        pwr = -0 W

Instance: Vtest46
Model: vsource
Primitive: vsource
          p : V(BL6) = 884.813 mV
          n : V(NM46) = 884.813 mV
          v = 0 V
          i = -106.954 fA
        pwr = -0 W

Instance: Vtest47
Model: vsource
Primitive: vsource
          p : V(BL6) = 884.813 mV
          n : V(NM47) = 884.813 mV
          v = 0 V
          i = -106.954 fA
        pwr = -0 W

Instance: Vtest48
Model: vsource
Primitive: vsource
          p : V(BL6) = 884.813 mV
          n : V(NM48) = 884.813 mV
          v = 0 V
          i = -2.40498 aA
        pwr = -0 W

Instance: Vtest49
Model: vsource
Primitive: vsource
          p : V(BL7) = 884.813 mV
          n : V(NM49) = 884.813 mV
          v = 0 V
          i = -106.954 fA
        pwr = -0 W

Instance: Vtest50
Model: vsource
Primitive: vsource
          p : V(BL7) = 884.813 mV
          n : V(NM50) = 884.813 mV
          v = 0 V
          i = -106.954 fA
        pwr = -0 W

Instance: Vtest51
Model: vsource
Primitive: vsource
          p : V(BL7) = 884.813 mV
          n : V(NM51) = 884.813 mV
          v = 0 V
          i = -106.954 fA
        pwr = -0 W

Instance: Vtest52
Model: vsource
Primitive: vsource
          p : V(BL7) = 884.813 mV
          n : V(NM52) = 884.813 mV
          v = 0 V
          i = -185.425 pA
        pwr = -0 W

Instance: Vtest53
Model: vsource
Primitive: vsource
          p : V(BL7) = 884.813 mV
          n : V(NM53) = 884.813 mV
          v = 0 V
          i = -106.954 fA
        pwr = -0 W

Instance: Vtest54
Model: vsource
Primitive: vsource
          p : V(BL7) = 884.813 mV
          n : V(NM54) = 884.813 mV
          v = 0 V
          i = -106.954 fA
        pwr = -0 W

Instance: Vtest55
Model: vsource
Primitive: vsource
          p : V(BL7) = 884.813 mV
          n : V(NM55) = 884.813 mV
          v = 0 V
          i = -106.954 fA
        pwr = -0 W

Instance: Vtest56
Model: vsource
Primitive: vsource
          p : V(BL7) = 884.813 mV
          n : V(NM56) = 884.813 mV
          v = 0 V
          i = -2.40498 aA
        pwr = -0 W

Instance: Vtest57
Model: vsource
Primitive: vsource
          p : V(BL8) = 884.813 mV
          n : V(NM57) = 884.813 mV
          v = 0 V
          i = -106.954 fA
        pwr = -0 W

Instance: Vtest58
Model: vsource
Primitive: vsource
          p : V(BL8) = 884.813 mV
          n : V(NM58) = 884.813 mV
          v = 0 V
          i = -106.954 fA
        pwr = -0 W

Instance: Vtest59
Model: vsource
Primitive: vsource
          p : V(BL8) = 884.813 mV
          n : V(NM59) = 884.813 mV
          v = 0 V
          i = -106.954 fA
        pwr = -0 W

Instance: Vtest60
Model: vsource
Primitive: vsource
          p : V(BL8) = 884.813 mV
          n : V(NM60) = 884.813 mV
          v = 0 V
          i = -185.425 pA
        pwr = -0 W

Instance: Vtest61
Model: vsource
Primitive: vsource
          p : V(BL8) = 884.813 mV
          n : V(NM61) = 884.813 mV
          v = 0 V
          i = -106.954 fA
        pwr = -0 W

Instance: Vtest62
Model: vsource
Primitive: vsource
          p : V(BL8) = 884.813 mV
          n : V(NM62) = 884.813 mV
          v = 0 V
          i = -106.954 fA
        pwr = -0 W

Instance: Vtest63
Model: vsource
Primitive: vsource
          p : V(BL8) = 884.813 mV
          n : V(NM63) = 884.813 mV
          v = 0 V
          i = -106.954 fA
        pwr = -0 W

Instance: Vtest64
Model: vsource
Primitive: vsource
          p : V(BL8) = 884.813 mV
          n : V(NM64) = 884.813 mV
          v = 0 V
          i = -2.40498 aA
        pwr = -0 W

Instance: Vvdd
Model: vsource
Primitive: vsource
          p : V(Vdd) = 1.6 V
          n : val(0) = 0 
          v = 1.6 V
          i = -13.6138 uA
        pwr = -21.782 uW

Instance: Vwl1
Model: vsource
Primitive: vsource
          p : V(WL1T) = 1.6 V
          n : val(0) = 0 
          v = 1.6 V
          i = -313.604 nA
        pwr = -501.767 nW

Instance: Vwl2
Model: vsource
Primitive: vsource
          p : V(WL2T) = 1.6 V
          n : val(0) = 0 
          v = 1.6 V
          i = -313.604 nA
        pwr = -501.767 nW

Instance: Vwl3
Model: vsource
Primitive: vsource
          p : V(WL3T) = 1.6 V
          n : val(0) = 0 
          v = 1.6 V
          i = -313.604 nA
        pwr = -501.767 nW

Instance: Vwl4
Model: vsource
Primitive: vsource
          p : V(WL4T) = 0 V
          n : val(0) = 0 
          v = 0 V
          i = 535.001 nA
        pwr = 0 W

Instance: Vwl5
Model: vsource
Primitive: vsource
          p : V(WL5T) = 1.6 V
          n : val(0) = 0 
          v = 1.6 V
          i = -313.604 nA
        pwr = -501.767 nW

Instance: Vwl6
Model: vsource
Primitive: vsource
          p : V(WL6T) = 1.6 V
          n : val(0) = 0 
          v = 1.6 V
          i = -313.604 nA
        pwr = -501.767 nW

Instance: Vwl7
Model: vsource
Primitive: vsource
          p : V(WL7T) = 1.6 V
          n : val(0) = 0 
          v = 1.6 V
          i = -313.604 nA
        pwr = -501.767 nW

Instance: Vwl8
Model: vsource
Primitive: vsource
          p : V(WL8T) = 1.6 V
          n : val(0) = 0 
          v = 1.6 V
          i = -386.277 nA
        pwr = -618.044 nW

Instance: Vwlen
Model: vsource
Primitive: vsource
          p : V(ENWl) = 0 V
          n : val(0) = 0 
          v = 0 V
          i = 74.0685 nA
        pwr = 0 W

Instance: Vwlen1
Model: vsource
Primitive: vsource
          p : V(ENWl1) = 1.6 V
          n : val(0) = 0 
          v = 1.6 V
          i = -24.9479 nA
        pwr = -39.9167 nW

Instance: X1.X1.vISample of MTJT
Model: vsource
Primitive: vsource
          p : V(NM1) = 884.813 mV
          n : V(X1.X1.nVCR1) = 884.813 mV
          v = 0 V
          i = -106.954 fA
        pwr = -0 W

Instance: X2.X1.vISample of MTJT
Model: vsource
Primitive: vsource
          p : V(NM2) = 884.813 mV
          n : V(X2.X1.nVCR1) = 884.813 mV
          v = 0 V
          i = -106.954 fA
        pwr = -0 W

Instance: X3.X1.vISample of MTJT
Model: vsource
Primitive: vsource
          p : V(NM3) = 884.813 mV
          n : V(X3.X1.nVCR1) = 884.813 mV
          v = 0 V
          i = -106.954 fA
        pwr = -0 W

Instance: X4.X1.vISample of MTJT
Model: vsource
Primitive: vsource
          p : V(NM4) = 884.813 mV
          n : V(X4.X1.nVCR1) = 884.813 mV
          v = 0 V
          i = -185.425 pA
        pwr = -0 W

Instance: X5.X1.vISample of MTJT
Model: vsource
Primitive: vsource
          p : V(NM5) = 884.813 mV
          n : V(X5.X1.nVCR1) = 884.813 mV
          v = 0 V
          i = -106.954 fA
        pwr = -0 W

Instance: X6.X1.vISample of MTJT
Model: vsource
Primitive: vsource
          p : V(NM6) = 884.813 mV
          n : V(X6.X1.nVCR1) = 884.813 mV
          v = 0 V
          i = -106.954 fA
        pwr = -0 W

Instance: X7.X1.vISample of MTJT
Model: vsource
Primitive: vsource
          p : V(NM7) = 884.813 mV
          n : V(X7.X1.nVCR1) = 884.813 mV
          v = 0 V
          i = -106.954 fA
        pwr = -0 W

Instance: X8.X1.vISample of MTJT
Model: vsource
Primitive: vsource
          p : V(NM8) = 884.813 mV
          n : V(X8.X1.nVCR1) = 884.813 mV
          v = 0 V
          i = -2.40498 aA
        pwr = -0 W

Instance: X9.X1.vISample of MTJT
Model: vsource
Primitive: vsource
          p : V(NM9) = 884.813 mV
          n : V(X9.X1.nVCR1) = 884.813 mV
          v = 0 V
          i = -106.954 fA
        pwr = -0 W

Instance: X10.X1.vISample of MTJT
Model: vsource
Primitive: vsource
          p : V(NM10) = 884.813 mV
          n : V(X10.X1.nVCR1) = 884.813 mV
          v = 0 V
          i = -106.954 fA
        pwr = -0 W

Instance: X11.X1.vISample of MTJT
Model: vsource
Primitive: vsource
          p : V(NM11) = 884.813 mV
          n : V(X11.X1.nVCR1) = 884.813 mV
          v = 0 V
          i = -106.954 fA
        pwr = -0 W

Instance: X12.X1.vISample of MTJT
Model: vsource
Primitive: vsource
          p : V(NM12) = 884.813 mV
          n : V(X12.X1.nVCR1) = 884.813 mV
          v = 0 V
          i = -185.425 pA
        pwr = -0 W

Instance: X13.X1.vISample of MTJT
Model: vsource
Primitive: vsource
          p : V(NM13) = 884.813 mV
          n : V(X13.X1.nVCR1) = 884.813 mV
          v = 0 V
          i = -106.954 fA
        pwr = -0 W

Instance: X14.X1.vISample of MTJT
Model: vsource
Primitive: vsource
          p : V(NM14) = 884.813 mV
          n : V(X14.X1.nVCR1) = 884.813 mV
          v = 0 V
          i = -106.954 fA
        pwr = -0 W

Instance: X15.X1.vISample of MTJT
Model: vsource
Primitive: vsource
          p : V(NM15) = 884.813 mV
          n : V(X15.X1.nVCR1) = 884.813 mV
          v = 0 V
          i = -106.954 fA
        pwr = -0 W

Instance: X16.X1.vISample of MTJT
Model: vsource
Primitive: vsource
          p : V(NM16) = 884.813 mV
          n : V(X16.X1.nVCR1) = 884.813 mV
          v = 0 V
          i = -2.40498 aA
        pwr = -0 W

Instance: X17.X1.vISample of MTJT
Model: vsource
Primitive: vsource
          p : V(NM17) = 884.813 mV
          n : V(X17.X1.nVCR1) = 884.813 mV
          v = 0 V
          i = -106.954 fA
        pwr = -0 W

Instance: X18.X1.vISample of MTJT
Model: vsource
Primitive: vsource
          p : V(NM18) = 884.813 mV
          n : V(X18.X1.nVCR1) = 884.813 mV
          v = 0 V
          i = -106.954 fA
        pwr = -0 W

Instance: X19.X1.vISample of MTJT
Model: vsource
Primitive: vsource
          p : V(NM19) = 884.813 mV
          n : V(X19.X1.nVCR1) = 884.813 mV
          v = 0 V
          i = -106.954 fA
        pwr = -0 W

Instance: X20.X1.vISample of MTJT
Model: vsource
Primitive: vsource
          p : V(NM20) = 884.813 mV
          n : V(X20.X1.nVCR1) = 884.813 mV
          v = 0 V
          i = -185.425 pA
        pwr = -0 W

Instance: X21.X1.vISample of MTJT
Model: vsource
Primitive: vsource
          p : V(NM21) = 884.813 mV
          n : V(X21.X1.nVCR1) = 884.813 mV
          v = 0 V
          i = -106.954 fA
        pwr = -0 W

Instance: X22.X1.vISample of MTJT
Model: vsource
Primitive: vsource
          p : V(NM22) = 884.813 mV
          n : V(X22.X1.nVCR1) = 884.813 mV
          v = 0 V
          i = -106.954 fA
        pwr = -0 W

Instance: X23.X1.vISample of MTJT
Model: vsource
Primitive: vsource
          p : V(NM23) = 884.813 mV
          n : V(X23.X1.nVCR1) = 884.813 mV
          v = 0 V
          i = -106.954 fA
        pwr = -0 W

Instance: X24.X1.vISample of MTJT
Model: vsource
Primitive: vsource
          p : V(NM24) = 884.813 mV
          n : V(X24.X1.nVCR1) = 884.813 mV
          v = 0 V
          i = -2.40498 aA
        pwr = -0 W

Instance: X25.X1.vISample of MTJT
Model: vsource
Primitive: vsource
          p : V(NM25) = 454.374 nV
          n : V(X25.X1.nVCR1) = 454.374 nV
          v = 0 V
          i = -23.1537 aA
        pwr = -0 W

Instance: X26.X1.vISample of MTJT
Model: vsource
Primitive: vsource
          p : V(NM26) = 454.374 nV
          n : V(X26.X1.nVCR1) = 454.374 nV
          v = 0 V
          i = -23.1537 aA
        pwr = -0 W

Instance: X27.X1.vISample of MTJT
Model: vsource
Primitive: vsource
          p : V(NM27) = 454.374 nV
          n : V(X27.X1.nVCR1) = 454.374 nV
          v = 0 V
          i = -23.1537 aA
        pwr = -0 W

Instance: X28.X1.vISample of MTJT
Model: vsource
Primitive: vsource
          p : V(NM28) = 454.374 nV
          n : V(X28.X1.nVCR1) = 454.374 nV
          v = 0 V
          i = -25.995 aA
        pwr = -0 W

Instance: X29.X1.vISample of MTJT
Model: vsource
Primitive: vsource
          p : V(NM29) = 454.374 nV
          n : V(X29.X1.nVCR1) = 454.374 nV
          v = 0 V
          i = -23.1537 aA
        pwr = -0 W

Instance: X30.X1.vISample of MTJT
Model: vsource
Primitive: vsource
          p : V(NM30) = 454.374 nV
          n : V(X30.X1.nVCR1) = 454.374 nV
          v = 0 V
          i = -23.1537 aA
        pwr = -0 W

Instance: X31.X1.vISample of MTJT
Model: vsource
Primitive: vsource
          p : V(NM31) = 454.374 nV
          n : V(X31.X1.nVCR1) = 454.374 nV
          v = 0 V
          i = -23.1537 aA
        pwr = -0 W

Instance: X32.X1.vISample of MTJT
Model: vsource
Primitive: vsource
          p : V(NM32) = 454.374 nV
          n : V(X32.X1.nVCR1) = 454.374 nV
          v = 0 V
          i = -25.6277 aA
        pwr = -0 W

Instance: X33.X1.vISample of MTJT
Model: vsource
Primitive: vsource
          p : V(NM33) = 884.813 mV
          n : V(X33.X1.nVCR1) = 884.813 mV
          v = 0 V
          i = -106.954 fA
        pwr = -0 W

Instance: X34.X1.vISample of MTJT
Model: vsource
Primitive: vsource
          p : V(NM34) = 884.813 mV
          n : V(X34.X1.nVCR1) = 884.813 mV
          v = 0 V
          i = -106.954 fA
        pwr = -0 W

Instance: X35.X1.vISample of MTJT
Model: vsource
Primitive: vsource
          p : V(NM35) = 884.813 mV
          n : V(X35.X1.nVCR1) = 884.813 mV
          v = 0 V
          i = -106.954 fA
        pwr = -0 W

Instance: X36.X1.vISample of MTJT
Model: vsource
Primitive: vsource
          p : V(NM36) = 884.813 mV
          n : V(X36.X1.nVCR1) = 884.813 mV
          v = 0 V
          i = -185.425 pA
        pwr = -0 W

Instance: X37.X1.vISample of MTJT
Model: vsource
Primitive: vsource
          p : V(NM37) = 884.813 mV
          n : V(X37.X1.nVCR1) = 884.813 mV
          v = 0 V
          i = -106.954 fA
        pwr = -0 W

Instance: X38.X1.vISample of MTJT
Model: vsource
Primitive: vsource
          p : V(NM38) = 884.813 mV
          n : V(X38.X1.nVCR1) = 884.813 mV
          v = 0 V
          i = -106.954 fA
        pwr = -0 W

Instance: X39.X1.vISample of MTJT
Model: vsource
Primitive: vsource
          p : V(NM39) = 884.813 mV
          n : V(X39.X1.nVCR1) = 884.813 mV
          v = 0 V
          i = -106.954 fA
        pwr = -0 W

Instance: X40.X1.vISample of MTJT
Model: vsource
Primitive: vsource
          p : V(NM40) = 884.813 mV
          n : V(X40.X1.nVCR1) = 884.813 mV
          v = 0 V
          i = -2.40498 aA
        pwr = -0 W

Instance: X41.X1.vISample of MTJT
Model: vsource
Primitive: vsource
          p : V(NM41) = 884.813 mV
          n : V(X41.X1.nVCR1) = 884.813 mV
          v = 0 V
          i = -106.954 fA
        pwr = -0 W

Instance: X42.X1.vISample of MTJT
Model: vsource
Primitive: vsource
          p : V(NM42) = 884.813 mV
          n : V(X42.X1.nVCR1) = 884.813 mV
          v = 0 V
          i = -106.954 fA
        pwr = -0 W

Instance: X43.X1.vISample of MTJT
Model: vsource
Primitive: vsource
          p : V(NM43) = 884.813 mV
          n : V(X43.X1.nVCR1) = 884.813 mV
          v = 0 V
          i = -106.954 fA
        pwr = -0 W

Instance: X44.X1.vISample of MTJT
Model: vsource
Primitive: vsource
          p : V(NM44) = 884.813 mV
          n : V(X44.X1.nVCR1) = 884.813 mV
          v = 0 V
          i = -185.425 pA
        pwr = -0 W

Instance: X45.X1.vISample of MTJT
Model: vsource
Primitive: vsource
          p : V(NM45) = 884.813 mV
          n : V(X45.X1.nVCR1) = 884.813 mV
          v = 0 V
          i = -106.954 fA
        pwr = -0 W

Instance: X46.X1.vISample of MTJT
Model: vsource
Primitive: vsource
          p : V(NM46) = 884.813 mV
          n : V(X46.X1.nVCR1) = 884.813 mV
          v = 0 V
          i = -106.954 fA
        pwr = -0 W

Instance: X47.X1.vISample of MTJT
Model: vsource
Primitive: vsource
          p : V(NM47) = 884.813 mV
          n : V(X47.X1.nVCR1) = 884.813 mV
          v = 0 V
          i = -106.954 fA
        pwr = -0 W

Instance: X48.X1.vISample of MTJT
Model: vsource
Primitive: vsource
          p : V(NM48) = 884.813 mV
          n : V(X48.X1.nVCR1) = 884.813 mV
          v = 0 V
          i = -2.40498 aA
        pwr = -0 W

Instance: X49.X1.vISample of MTJT
Model: vsource
Primitive: vsource
          p : V(NM49) = 884.813 mV
          n : V(X49.X1.nVCR1) = 884.813 mV
          v = 0 V
          i = -106.954 fA
        pwr = -0 W

Instance: X50.X1.vISample of MTJT
Model: vsource
Primitive: vsource
          p : V(NM50) = 884.813 mV
          n : V(X50.X1.nVCR1) = 884.813 mV
          v = 0 V
          i = -106.954 fA
        pwr = -0 W

Instance: X51.X1.vISample of MTJT
Model: vsource
Primitive: vsource
          p : V(NM51) = 884.813 mV
          n : V(X51.X1.nVCR1) = 884.813 mV
          v = 0 V
          i = -106.954 fA
        pwr = -0 W

Instance: X52.X1.vISample of MTJT
Model: vsource
Primitive: vsource
          p : V(NM52) = 884.813 mV
          n : V(X52.X1.nVCR1) = 884.813 mV
          v = 0 V
          i = -185.425 pA
        pwr = -0 W

Instance: X53.X1.vISample of MTJT
Model: vsource
Primitive: vsource
          p : V(NM53) = 884.813 mV
          n : V(X53.X1.nVCR1) = 884.813 mV
          v = 0 V
          i = -106.954 fA
        pwr = -0 W

Instance: X54.X1.vISample of MTJT
Model: vsource
Primitive: vsource
          p : V(NM54) = 884.813 mV
          n : V(X54.X1.nVCR1) = 884.813 mV
          v = 0 V
          i = -106.954 fA
        pwr = -0 W

Instance: X55.X1.vISample of MTJT
Model: vsource
Primitive: vsource
          p : V(NM55) = 884.813 mV
          n : V(X55.X1.nVCR1) = 884.813 mV
          v = 0 V
          i = -106.954 fA
        pwr = -0 W

Instance: X56.X1.vISample of MTJT
Model: vsource
Primitive: vsource
          p : V(NM56) = 884.813 mV
          n : V(X56.X1.nVCR1) = 884.813 mV
          v = 0 V
          i = -2.40498 aA
        pwr = -0 W

Instance: X57.X1.vISample of MTJT
Model: vsource
Primitive: vsource
          p : V(NM57) = 884.813 mV
          n : V(X57.X1.nVCR1) = 884.813 mV
          v = 0 V
          i = -106.954 fA
        pwr = -0 W

Instance: X58.X1.vISample of MTJT
Model: vsource
Primitive: vsource
          p : V(NM58) = 884.813 mV
          n : V(X58.X1.nVCR1) = 884.813 mV
          v = 0 V
          i = -106.954 fA
        pwr = -0 W

Instance: X59.X1.vISample of MTJT
Model: vsource
Primitive: vsource
          p : V(NM59) = 884.813 mV
          n : V(X59.X1.nVCR1) = 884.813 mV
          v = 0 V
          i = -106.954 fA
        pwr = -0 W

Instance: X60.X1.vISample of MTJT
Model: vsource
Primitive: vsource
          p : V(NM60) = 884.813 mV
          n : V(X60.X1.nVCR1) = 884.813 mV
          v = 0 V
          i = -185.425 pA
        pwr = -0 W

Instance: X61.X1.vISample of MTJT
Model: vsource
Primitive: vsource
          p : V(NM61) = 884.813 mV
          n : V(X61.X1.nVCR1) = 884.813 mV
          v = 0 V
          i = -106.954 fA
        pwr = -0 W

Instance: X62.X1.vISample of MTJT
Model: vsource
Primitive: vsource
          p : V(NM62) = 884.813 mV
          n : V(X62.X1.nVCR1) = 884.813 mV
          v = 0 V
          i = -106.954 fA
        pwr = -0 W

Instance: X63.X1.vISample of MTJT
Model: vsource
Primitive: vsource
          p : V(NM63) = 884.813 mV
          n : V(X63.X1.nVCR1) = 884.813 mV
          v = 0 V
          i = -106.954 fA
        pwr = -0 W

Instance: X64.X1.vISample of MTJT
Model: vsource
Primitive: vsource
          p : V(NM64) = 884.813 mV
          n : V(X64.X1.nVCR1) = 884.813 mV
          v = 0 V
          i = -2.40498 aA
        pwr = -0 W

Maximum and minimum parameter values for vsource: 
            max v = 1.6 V on Vbl4en
            min v = 0 V on Vbl1
            max i = 535.108 nA on Vsl1
            min i = -13.6138 uA on Vvdd
          min |i| = -2.40498 aA on Vtest56
          max pwr = 0 W on Vbl1
          min pwr = -21.782 uW on Vvdd


Total Power Dissipation = 25.6707 uW.


Convergence achieved in 18 iterations.
DC simulation time: CPU = 394.257 ms, elapsed = 429.641 ms.
Total time required for dc analysis `LeakStat': CPU = 394.368 ms, elapsed = 429.753 ms.
Time accumulated: CPU = 20.953 s, elapsed = 21.476 s.
Peak resident memory used = 90.6 Mbytes.


Aggregate audit (8:45:37 AM, Mon Mar 29, 2021):
Time used: CPU = 21 s, elapsed = 21.5 s, util. = 97.3%.
Time spent in licensing: elapsed = 25.1 ms.
Peak memory used = 91 Mbytes.
Simulation started at: 8:45:15 AM, Mon Mar 29, 2021, ended at: 8:45:37 AM, Mon Mar 29, 2021, with elapsed time (wall clock): 21.5 s.
spectre completes with 0 errors, 3 warnings, and 57 notices.
