
Spectre (R) Circuit Simulator
Version 16.1.0.673.isr14 64bit -- 30 Mar 2018
Copyright (C) 1989-2018 Cadence Design Systems, Inc. All rights reserved worldwide. Cadence and Spectre are registered trademarks of Cadence Design Systems, Inc. All others are the property of their respective holders.

Includes RSA BSAFE(R) Cryptographic or Security Protocol Software from RSA Security, Inc.

User: brunozimmer   Host: itacolomi.lapsi   HostID: 7F0100   PID: 10072
Memory  available: 14.2906 GB  physical: 33.7036 GB
Linux   : CentOS Linux release 7.9.2009 (Core)
CPU Type: Intel(R) Xeon(R) CPU E3-1220 V2 @ 3.10GHz
All processors running at 2913.1 MHz
        Socket: Processors
        0:       0,  1,  2,  3
        
System load averages (1min, 5min, 15min) : 2.0 %, 3.0 %, 2.2 %


Simulating `Cell.scs' on itacolomi.lapsi at 8:21:33 AM, Mon Mar 29, 2021 (process id: 10072).
Current working directory: /home/brunozimmer/Documentos/ComparacaoMemorias/1MTJ_HF/256-TG
Command line:
    /tools/cadence/SPECTRE161/tools.lnx86/bin/spectre -64 =mdl  \
        Result.mdl Cell.scs

Loading /tools/cadence/SPECTRE161/tools.lnx86/cmi/lib/64bit/5.0/libinfineon_sh.so ...
Loading /tools/cadence/SPECTRE161/tools.lnx86/cmi/lib/64bit/5.0/libphilips_o_sh.so ...
Loading /tools/cadence/SPECTRE161/tools.lnx86/cmi/lib/64bit/5.0/libphilips_sh.so ...
Loading /tools/cadence/SPECTRE161/tools.lnx86/cmi/lib/64bit/5.0/libsparam_sh.so ...
Loading /tools/cadence/SPECTRE161/tools.lnx86/cmi/lib/64bit/5.0/libstmodels_sh.so ...
Loading /tools/cadence/SPECTRE161/tools.lnx86/spectre/lib/64bit/mdl/libSpectreEH_sh.so ...

Warning from spectre.
    WARNING (MDL-1452): line 1, column 1: syntax error before or at: *
            unrecognised statement.

Reading file:  /home/brunozimmer/Documentos/ComparacaoMemorias/1MTJ_HF/256-TG/Cell.scs
Reading file:  /tools/cadence/SPECTRE161/tools.lnx86/spectre/etc/configs/mapsubckt.cfg
Reading file:  /tools/cadence/SPECTRE161/tools.lnx86/spectre/etc/configs/spectre.cfg
Reading file:  /home/brunozimmer/Documentos/ComparacaoMemorias/1MTJ_HF/256-TG/45nm_LP.pm
Reading file:  /home/brunozimmer/Documentos/ComparacaoMemorias/1MTJ_HF/256-TG/MTJT.spi
Reading file:  /home/brunozimmer/Documentos/ComparacaoMemorias/1MTJ_HF/256-TG/TRANSGATE.spi
Time for NDB Parsing: CPU = 206.653 ms, elapsed = 222.155 ms.
Time accumulated: CPU = 228.998 ms, elapsed = 222.162 ms.
Peak resident memory used = 68 Mbytes.

Reading link:  /tools/cadence/SPECTRE161/tools.lnx86/spectre/etc/ahdl/discipline.h
Reading file:  /tools/cadence/SPECTRE161/tools.lnx86/spectre/etc/ahdl/disciplines.vams
Reading link:  /tools/cadence/SPECTRE161/tools.lnx86/spectre/etc/ahdl/constants.h
Reading file:  /tools/cadence/SPECTRE161/tools.lnx86/spectre/etc/ahdl/constants.vams
Existing shared object for module bsource_299dda is up to date.
Installed compiled interface for bsource_299dda.
Existing shared object for module bsource_c88c6a is up to date.
Installed compiled interface for bsource_c88c6a.
Existing shared object for module bsource_42ea24 is up to date.
Installed compiled interface for bsource_42ea24.
Existing shared object for module bsource_7b7e87 is up to date.
Installed compiled interface for bsource_7b7e87.
Existing shared object for module bsource_098211 is up to date.
Installed compiled interface for bsource_098211.
Existing shared object for module bsource_ad0f4a is up to date.
Installed compiled interface for bsource_ad0f4a.
Time for Elaboration: CPU = 68.542 ms, elapsed = 68.6321 ms.
Time accumulated: CPU = 297.714 ms, elapsed = 290.992 ms.
Peak resident memory used = 81.1 Mbytes.


Time for EDB Visiting: CPU = 93.253 ms, elapsed = 93.2641 ms.
Time accumulated: CPU = 391.142 ms, elapsed = 384.454 ms.
Peak resident memory used = 87.9 Mbytes.


Global user options:
             rawfmt = psfbin
               cmin = 1.2e-14

Scoped user options:

Circuit inventory:
              nodes 3715
              bsim4 160   
     bsource_7b7e87 256   
     bsource_42ea24 256   
     bsource_299dda 256   
     bsource_098211 256   
     bsource_ad0f4a 256   
     bsource_c88c6a 256   
          capacitor 1576  
           resistor 1800  
               vccs 256   
               vcvs 1024  
            vsource 563   

Analysis and control statement inventory:
               tran 1     

Output statements:
             .probe 0     
           .measure 0     
               save 0     

Time for parsing: CPU = 31.347 ms, elapsed = 71.528 ms.
Time accumulated: CPU = 422.621 ms, elapsed = 456.132 ms.
Peak resident memory used = 94 Mbytes.

~~~~~~~~~~~~~~~~~~~~~~
Pre-Simulation Summary
~~~~~~~~~~~~~~~~~~~~~~
~~~~~~~~~~~~~~~~~~~~~~

+++++++++++++++
TpRead = (1.5n)
+++++++++++++++

**************************************************************
Transient Analysis `TmpRead-000_TmpRead': time = (0 s -> 5 ns)
**************************************************************
Finding DC approximate solution failed. Try again with try_fast_op set to no.
DC simulation time: CPU = 296.794 ms, elapsed = 296.866 ms.

Notice from spectre during transient analysis `TmpRead-000_TmpRead', during task `MDLControl'.
    No outputs were found. Loosening output filter criterion to `allpub'.


Opening the PSF file Cell.raw/TmpRead-000_TmpRead.tran.tran ...
Important parameter values:
    start = 0 s
    outputstart = 0 s
    stop = 5 ns
    step = 5 ps
    maxstep = 100 ps
    ic = all
    useprevic = no
    skipdc = no
    reltol = 1e-03
    abstol(V) = 1 uV
    abstol(I) = 1 pA
    temp = 27 C
    tnom = 27 C
    tempeffects = all
    errpreset = moderate
    method = traponly
    lteratio = 3.5
    relref = sigglobal
    cmin = 12 fF
    gmin = 1 pS


Output and IC/nodeset summary:
                 save   563     (current)
                 save   3715    (voltage)

........9....

Notice from spectre at time = 724.782 ps during transient analysis `TmpRead-000_TmpRead', during task `MDLControl'.
    Found trapezoidal ringing on node X16.eISensBin2:bs_p1_bs_p2_flow.
Notice from spectre at time = 732.065 ps during transient analysis `TmpRead-000_TmpRead', during task `MDLControl'.
    Found trapezoidal ringing on node X144.eISensBin2:bs_p1_bs_p2_flow.
Notice from spectre at time = 740.301 ps during transient analysis `TmpRead-000_TmpRead', during task `MDLControl'.
    Found trapezoidal ringing on node X16.eISensBin2:bs_p1_bs_p2_flow.
Notice from spectre at time = 750.007 ps during transient analysis `TmpRead-000_TmpRead', during task `MDLControl'.
    Found trapezoidal ringing on node X16.eISensBin2:bs_p1_bs_p2_flow.

........9.....

Notice from spectre at time = 760.77 ps during transient analysis `TmpRead-000_TmpRead', during task `MDLControl'.
    Found trapezoidal ringing on node X176.eISensBin2:bs_p1_bs_p2_flow.
        Further occurrences of this notice will be suppressed.

........9........8........7........6........5........4........3........2........1........0
Number of accepted tran steps =             590

Notice from spectre during transient analysis `TmpRead-000_TmpRead', during task `MDLControl'.
    Trapezoidal ringing is detected during tran analysis.
        Please use method=trap for better results and performance.


Maximum value achieved for any signal of each quantity: 
V: V(X256.nBiStable) = 10 V
I: I(X97.eISensBin2:bs_p1_bs_p2_flow) = 736.8 A
If your circuit contains signals of the same quantity that are vastly different in size (such as high voltage circuitry combined with low voltage control circuitry), you should consider specifying global option `bin_relref=yes'.

~~~~~~~~~~~~~~~~~~~~~~~~~~~~~~~~~
Post-Transient Simulation Summary
~~~~~~~~~~~~~~~~~~~~~~~~~~~~~~~~~
   -   To further speed up simulation, consider
          add ++aps on command line
~~~~~~~~~~~~~~~~~~~~~~~~~~~~~~~~~


During simulation, the CPU load for active processors is :
        Spectre  0 (6.2 %)       1 (91.8 %)      2 (6.0 %)       3 (10.4 %)
        Other   
Initial condition solution time: CPU = 296.926 ms, elapsed = 297.009 ms.
Intrinsic tran analysis time:    CPU = 4.6025 s, elapsed = 4.62659 s.
Total time required for tran analysis `TmpRead-000_TmpRead': CPU = 4.92365 s, elapsed = 4.94795 s.
Time accumulated: CPU = 5.4288 s, elapsed = 5.52225 s.
Peak resident memory used = 113 Mbytes.


Notice from spectre during task `MDLControl'.
    132 notices suppressed.


Value of Exported Variables in this iteration of the Search loop ( iteration = 1 ) :
CurBL=0.000684593
TpRd=2e-10

Warning from spectre.
    WARNING (MDL-1560): Error in search, check search condition validity at start value.


++++++++++++++++
TpWrite = (2.4n)
++++++++++++++++

****************************************************************
Transient Analysis `TmpWrite-000_TmpWrite': time = (0 s -> 5 ns)
****************************************************************
Finding DC approximate solution failed. Try again with try_fast_op set to no.
DC simulation time: CPU = 362.1 ms, elapsed = 362.135 ms.

Notice from spectre during transient analysis `TmpWrite-000_TmpWrite', during task `MDLControl'.
    No outputs were found. Loosening output filter criterion to `allpub'.


Opening the PSF file Cell.raw/TmpWrite-000_TmpWrite.tran.tran ...
Important parameter values:
    start = 0 s
    outputstart = 0 s
    stop = 5 ns
    step = 5 ps
    maxstep = 100 ps
    ic = all
    useprevic = no
    skipdc = no
    reltol = 1e-03
    abstol(V) = 1 uV
    abstol(I) = 1 pA
    temp = 27 C
    tnom = 27 C
    tempeffects = all
    errpreset = moderate
    method = traponly
    lteratio = 3.5
    relref = sigglobal
    cmin = 12 fF
    gmin = 1 pS


Output and IC/nodeset summary:
                 save   563     (current)
                 save   3715    (voltage)

........9....

Notice from spectre at time = 724.782 ps during transient analysis `TmpWrite-000_TmpWrite', during task `MDLControl'.
    Found trapezoidal ringing on node X16.eISensBin2:bs_p1_bs_p2_flow.
Notice from spectre at time = 732.065 ps during transient analysis `TmpWrite-000_TmpWrite', during task `MDLControl'.
    Found trapezoidal ringing on node X144.eISensBin2:bs_p1_bs_p2_flow.
Notice from spectre at time = 740.301 ps during transient analysis `TmpWrite-000_TmpWrite', during task `MDLControl'.
    Found trapezoidal ringing on node X16.eISensBin2:bs_p1_bs_p2_flow.
Notice from spectre at time = 750.007 ps during transient analysis `TmpWrite-000_TmpWrite', during task `MDLControl'.
    Found trapezoidal ringing on node X16.eISensBin2:bs_p1_bs_p2_flow.

........9.....

Notice from spectre at time = 760.77 ps during transient analysis `TmpWrite-000_TmpWrite', during task `MDLControl'.
    Found trapezoidal ringing on node X176.eISensBin2:bs_p1_bs_p2_flow.
        Further occurrences of this notice will be suppressed.

........9........8........7........6........5........4........3........2........1........0
Number of accepted tran steps =             596

Notice from spectre during transient analysis `TmpWrite-000_TmpWrite', during task `MDLControl'.
    Trapezoidal ringing is detected during tran analysis.
        Please use method=trap for better results and performance.


Maximum value achieved for any signal of each quantity: 
V: V(X256.nBiStable) = 10 V
I: I(X97.eISensBin2:bs_p1_bs_p2_flow) = 736.8 A
If your circuit contains signals of the same quantity that are vastly different in size (such as high voltage circuitry combined with low voltage control circuitry), you should consider specifying global option `bin_relref=yes'.

~~~~~~~~~~~~~~~~~~~~~~~~~~~~~~~~~
Post-Transient Simulation Summary
~~~~~~~~~~~~~~~~~~~~~~~~~~~~~~~~~
   -   To further speed up simulation, consider
          add ++aps on command line
~~~~~~~~~~~~~~~~~~~~~~~~~~~~~~~~~


During simulation, the CPU load for active processors is :
        Spectre  0 (5.8 %)       1 (95.0 %)      2 (5.2 %)       3 (7.4 %)
        Other   
Initial condition solution time: CPU = 362.224 ms, elapsed = 362.268 ms.
Intrinsic tran analysis time:    CPU = 4.63554 s, elapsed = 4.65515 s.
Total time required for tran analysis `TmpWrite-000_TmpWrite': CPU = 5.02001 s, elapsed = 5.03977 s.
Time accumulated: CPU = 10.5197 s, elapsed = 10.696 s.
Peak resident memory used = 116 Mbytes.


Notice from spectre during task `MDLControl'.
    136 notices suppressed.


Value of Exported Variables in this iteration of the Search loop ( iteration = 1 ) :
CurX=0.00166247
TpWrt=3e-10

Warning from spectre.
    WARNING (MDL-1560): Error in search, check search condition validity at start value.


***************************************************
Transient Analysis `PowerRd': time = (0 s -> 10 ns)
***************************************************
Finding DC approximate solution failed. Try again with try_fast_op set to no.
DC simulation time: CPU = 363.196 ms, elapsed = 363.229 ms.

Notice from spectre during transient analysis `PowerRd', during task `MDLControl'.
    No outputs were found. Loosening output filter criterion to `allpub'.


Opening the PSF file Cell.raw/PowerRd.tran.tran ...
Important parameter values:
    start = 0 s
    outputstart = 0 s
    stop = 10 ns
    step = 10 ps
    maxstep = 200 ps
    ic = all
    useprevic = no
    skipdc = no
    reltol = 1e-03
    abstol(V) = 1 uV
    abstol(I) = 1 pA
    temp = 27 C
    tnom = 27 C
    tempeffects = all
    errpreset = moderate
    method = traponly
    lteratio = 3.5
    relref = sigglobal
    cmin = 12 fF
    gmin = 1 pS


Output and IC/nodeset summary:
                 save   563     (current)
                 save   3715    (voltage)

.......

Notice from spectre at time = 820.585 ps during transient analysis `PowerRd', during task `MDLControl'.
    Found trapezoidal ringing on node X48.eISensBin2:bs_p1_bs_p2_flow.
Notice from spectre at time = 842.518 ps during transient analysis `PowerRd', during task `MDLControl'.
    Found trapezoidal ringing on node X80.eISensBin2:bs_p1_bs_p2_flow.

........

Notice from spectre at time = 866.616 ps during transient analysis `PowerRd', during task `MDLControl'.
    Found trapezoidal ringing on node X16.eISensBin2:bs_p1_bs_p2_flow.
Notice from spectre at time = 881.177 ps during transient analysis `PowerRd', during task `MDLControl'.
    Found trapezoidal ringing on node X529.M_i_3:int_b.
Notice from spectre at time = 881.581 ps during transient analysis `PowerRd', during task `MDLControl'.
    Found trapezoidal ringing on node X529.M_i_3:int_b.
        Further occurrences of this notice will be suppressed.

........9........8........7........6........5........4........3........2........1........0
Number of accepted tran steps =             585

Notice from spectre during transient analysis `PowerRd', during task `MDLControl'.
    Trapezoidal ringing is detected during tran analysis.
        Please use method=trap for better results and performance.


Maximum value achieved for any signal of each quantity: 
V: V(X256.nBiStable) = 10 V
I: I(X97.eISensBin2:bs_p1_bs_p2_flow) = 736.8 A
If your circuit contains signals of the same quantity that are vastly different in size (such as high voltage circuitry combined with low voltage control circuitry), you should consider specifying global option `bin_relref=yes'.

~~~~~~~~~~~~~~~~~~~~~~~~~~~~~~~~~
Post-Transient Simulation Summary
~~~~~~~~~~~~~~~~~~~~~~~~~~~~~~~~~
   -   To further speed up simulation, consider
          add ++aps on command line
~~~~~~~~~~~~~~~~~~~~~~~~~~~~~~~~~


During simulation, the CPU load for active processors is :
        Spectre  0 (5.7 %)       1 (96.3 %)      2 (5.1 %)       3 (6.2 %)
        Other   
Initial condition solution time: CPU = 363.334 ms, elapsed = 363.377 ms.
Intrinsic tran analysis time:    CPU = 4.50226 s, elapsed = 4.5268 s.
Total time required for tran analysis `PowerRd': CPU = 4.88061 s, elapsed = 4.90533 s.
Time accumulated: CPU = 15.4109 s, elapsed = 15.6365 s.
Peak resident memory used = 116 Mbytes.


Notice from spectre during task `MDLControl'.
    99 notices suppressed.


**************************************************
Transient Analysis `LeakRd': time = (0 s -> 10 ns)
**************************************************
Finding DC approximate solution failed. Try again with try_fast_op set to no.
DC simulation time: CPU = 389.428 ms, elapsed = 389.691 ms.

Notice from spectre during transient analysis `LeakRd', during task `MDLControl'.
    No outputs were found. Loosening output filter criterion to `allpub'.


Opening the PSF file Cell.raw/LeakRd.tran.tran ...
Important parameter values:
    start = 0 s
    outputstart = 0 s
    stop = 10 ns
    step = 10 ps
    maxstep = 200 ps
    ic = all
    useprevic = no
    skipdc = no
    reltol = 1e-03
    abstol(V) = 1 uV
    abstol(I) = 1 pA
    temp = 27 C
    tnom = 27 C
    tempeffects = all
    errpreset = moderate
    method = traponly
    lteratio = 3.5
    relref = sigglobal
    cmin = 12 fF
    gmin = 1 pS


Output and IC/nodeset summary:
                 save   563     (current)
                 save   3715    (voltage)

.......

Notice from spectre at time = 820.585 ps during transient analysis `LeakRd', during task `MDLControl'.
    Found trapezoidal ringing on node X48.eISensBin2:bs_p1_bs_p2_flow.
Notice from spectre at time = 842.518 ps during transient analysis `LeakRd', during task `MDLControl'.
    Found trapezoidal ringing on node X80.eISensBin2:bs_p1_bs_p2_flow.

........

Notice from spectre at time = 866.616 ps during transient analysis `LeakRd', during task `MDLControl'.
    Found trapezoidal ringing on node X16.eISensBin2:bs_p1_bs_p2_flow.
Notice from spectre at time = 881.177 ps during transient analysis `LeakRd', during task `MDLControl'.
    Found trapezoidal ringing on node X529.M_i_3:int_b.
Notice from spectre at time = 881.581 ps during transient analysis `LeakRd', during task `MDLControl'.
    Found trapezoidal ringing on node X529.M_i_3:int_b.
        Further occurrences of this notice will be suppressed.

........9........8........7........6........5........4........3........2........1........0
Number of accepted tran steps =             585

Notice from spectre during transient analysis `LeakRd', during task `MDLControl'.
    Trapezoidal ringing is detected during tran analysis.
        Please use method=trap for better results and performance.


Maximum value achieved for any signal of each quantity: 
V: V(X256.nBiStable) = 10 V
I: I(X97.eISensBin2:bs_p1_bs_p2_flow) = 736.8 A
If your circuit contains signals of the same quantity that are vastly different in size (such as high voltage circuitry combined with low voltage control circuitry), you should consider specifying global option `bin_relref=yes'.

~~~~~~~~~~~~~~~~~~~~~~~~~~~~~~~~~
Post-Transient Simulation Summary
~~~~~~~~~~~~~~~~~~~~~~~~~~~~~~~~~
   -   To further speed up simulation, consider
          add ++aps on command line
~~~~~~~~~~~~~~~~~~~~~~~~~~~~~~~~~


During simulation, the CPU load for active processors is :
        Spectre  0 (5.4 %)       1 (74.2 %)      2 (27.5 %)      3 (5.4 %)
        Other   
Initial condition solution time: CPU = 389.559 ms, elapsed = 389.832 ms.
Intrinsic tran analysis time:    CPU = 4.98198 s, elapsed = 5.00808 s.
Total time required for tran analysis `LeakRd': CPU = 5.39604 s, elapsed = 5.42262 s.
Time accumulated: CPU = 20.8179 s, elapsed = 21.104 s.
Peak resident memory used = 118 Mbytes.


Notice from spectre during task `MDLControl'.
    99 notices suppressed.


****************************************************
Transient Analysis `PowerWrt': time = (0 s -> 10 ns)
****************************************************
Finding DC approximate solution failed. Try again with try_fast_op set to no.
DC simulation time: CPU = 366.429 ms, elapsed = 366.464 ms.

Notice from spectre during transient analysis `PowerWrt', during task `MDLControl'.
    No outputs were found. Loosening output filter criterion to `allpub'.


Opening the PSF file Cell.raw/PowerWrt.tran.tran ...
Important parameter values:
    start = 0 s
    outputstart = 0 s
    stop = 10 ns
    step = 10 ps
    maxstep = 200 ps
    ic = all
    useprevic = no
    skipdc = no
    reltol = 1e-03
    abstol(V) = 1 uV
    abstol(I) = 1 pA
    temp = 27 C
    tnom = 27 C
    tempeffects = all
    errpreset = moderate
    method = traponly
    lteratio = 3.5
    relref = sigglobal
    cmin = 12 fF
    gmin = 1 pS


Output and IC/nodeset summary:
                 save   563     (current)
                 save   3715    (voltage)

.......

Notice from spectre at time = 820.585 ps during transient analysis `PowerWrt', during task `MDLControl'.
    Found trapezoidal ringing on node X48.eISensBin2:bs_p1_bs_p2_flow.
Notice from spectre at time = 842.518 ps during transient analysis `PowerWrt', during task `MDLControl'.
    Found trapezoidal ringing on node X80.eISensBin2:bs_p1_bs_p2_flow.

........

Notice from spectre at time = 866.616 ps during transient analysis `PowerWrt', during task `MDLControl'.
    Found trapezoidal ringing on node X16.eISensBin2:bs_p1_bs_p2_flow.
Notice from spectre at time = 881.177 ps during transient analysis `PowerWrt', during task `MDLControl'.
    Found trapezoidal ringing on node X529.M_i_3:int_b.
Notice from spectre at time = 881.581 ps during transient analysis `PowerWrt', during task `MDLControl'.
    Found trapezoidal ringing on node X529.M_i_3:int_b.
        Further occurrences of this notice will be suppressed.

........9........8........7........6........5........4........3........2........1........0
Number of accepted tran steps =             585

Notice from spectre during transient analysis `PowerWrt', during task `MDLControl'.
    Trapezoidal ringing is detected during tran analysis.
        Please use method=trap for better results and performance.


Maximum value achieved for any signal of each quantity: 
V: V(X256.nBiStable) = 10 V
I: I(X97.eISensBin2:bs_p1_bs_p2_flow) = 736.8 A
If your circuit contains signals of the same quantity that are vastly different in size (such as high voltage circuitry combined with low voltage control circuitry), you should consider specifying global option `bin_relref=yes'.

~~~~~~~~~~~~~~~~~~~~~~~~~~~~~~~~~
Post-Transient Simulation Summary
~~~~~~~~~~~~~~~~~~~~~~~~~~~~~~~~~
   -   To further speed up simulation, consider
          add ++aps on command line
~~~~~~~~~~~~~~~~~~~~~~~~~~~~~~~~~


During simulation, the CPU load for active processors is :
        Spectre  0 (5.6 %)       1 (60.5 %)      2 (41.8 %)      3 (5.4 %)
        Other   
Initial condition solution time: CPU = 366.598 ms, elapsed = 366.642 ms.
Intrinsic tran analysis time:    CPU = 4.80663 s, elapsed = 4.83557 s.
Total time required for tran analysis `PowerWrt': CPU = 5.18768 s, elapsed = 5.2168 s.
Time accumulated: CPU = 26.0212 s, elapsed = 26.3605 s.
Peak resident memory used = 118 Mbytes.


Notice from spectre during task `MDLControl'.
    99 notices suppressed.


***************************************************
Transient Analysis `LeakWrt': time = (0 s -> 10 ns)
***************************************************
Finding DC approximate solution failed. Try again with try_fast_op set to no.
DC simulation time: CPU = 365.943 ms, elapsed = 366.004 ms.

Notice from spectre during transient analysis `LeakWrt', during task `MDLControl'.
    No outputs were found. Loosening output filter criterion to `allpub'.


Opening the PSF file Cell.raw/LeakWrt.tran.tran ...
Important parameter values:
    start = 0 s
    outputstart = 0 s
    stop = 10 ns
    step = 10 ps
    maxstep = 200 ps
    ic = all
    useprevic = no
    skipdc = no
    reltol = 1e-03
    abstol(V) = 1 uV
    abstol(I) = 1 pA
    temp = 27 C
    tnom = 27 C
    tempeffects = all
    errpreset = moderate
    method = traponly
    lteratio = 3.5
    relref = sigglobal
    cmin = 12 fF
    gmin = 1 pS


Output and IC/nodeset summary:
                 save   563     (current)
                 save   3715    (voltage)

.......

Notice from spectre at time = 820.585 ps during transient analysis `LeakWrt', during task `MDLControl'.
    Found trapezoidal ringing on node X48.eISensBin2:bs_p1_bs_p2_flow.
Notice from spectre at time = 842.518 ps during transient analysis `LeakWrt', during task `MDLControl'.
    Found trapezoidal ringing on node X80.eISensBin2:bs_p1_bs_p2_flow.

........

Notice from spectre at time = 866.616 ps during transient analysis `LeakWrt', during task `MDLControl'.
    Found trapezoidal ringing on node X16.eISensBin2:bs_p1_bs_p2_flow.
Notice from spectre at time = 881.177 ps during transient analysis `LeakWrt', during task `MDLControl'.
    Found trapezoidal ringing on node X529.M_i_3:int_b.
Notice from spectre at time = 881.581 ps during transient analysis `LeakWrt', during task `MDLControl'.
    Found trapezoidal ringing on node X529.M_i_3:int_b.
        Further occurrences of this notice will be suppressed.

........9........8........7........6........5........4........3........2........1........0
Number of accepted tran steps =             585

Notice from spectre during transient analysis `LeakWrt', during task `MDLControl'.
    Trapezoidal ringing is detected during tran analysis.
        Please use method=trap for better results and performance.


Maximum value achieved for any signal of each quantity: 
V: V(X256.nBiStable) = 10 V
I: I(X97.eISensBin2:bs_p1_bs_p2_flow) = 736.8 A
If your circuit contains signals of the same quantity that are vastly different in size (such as high voltage circuitry combined with low voltage control circuitry), you should consider specifying global option `bin_relref=yes'.

~~~~~~~~~~~~~~~~~~~~~~~~~~~~~~~~~
Post-Transient Simulation Summary
~~~~~~~~~~~~~~~~~~~~~~~~~~~~~~~~~
   -   To further speed up simulation, consider
          add ++aps on command line
~~~~~~~~~~~~~~~~~~~~~~~~~~~~~~~~~


During simulation, the CPU load for active processors is :
        Spectre  0 (5.6 %)       1 (50.7 %)      2 (51.8 %)      3 (5.1 %)
        Other   
Initial condition solution time: CPU = 366.093 ms, elapsed = 366.164 ms.
Intrinsic tran analysis time:    CPU = 5.12583 s, elapsed = 5.1471 s.
Total time required for tran analysis `LeakWrt': CPU = 5.51826 s, elapsed = 5.53973 s.
Time accumulated: CPU = 31.5506 s, elapsed = 31.9369 s.
Peak resident memory used = 120 Mbytes.


Notice from spectre during task `MDLControl'.
    99 notices suppressed.


**********************
DC Analysis `LeakStat'
**********************

Notice from spectre during DC analysis `LeakStat', during task `MDLControl'.
    No outputs were found. Loosening output filter criterion to `allpub'.

Finding DC approximate solution failed. Try again with try_fast_op set to no.

Opening the PSF file Cell.raw/LeakStat.dc ...
Important parameter values:
    reltol = 1e-03
    abstol(V) = 1 uV
    abstol(I) = 1 pA
    temp = 27 C
    tnom = 27 C
    tempeffects = all
    gmindc = 1 pS

Notice from spectre during DC analysis `LeakStat', during task `MDLControl'.
    Bad pivoting is found during DC analysis. Option dc_pivot_check=yes is recommended for possible improvement of convergence.


Maximum value achieved for any signal of each quantity: 
V: V(X80.nVTMR) = 2.307 V
I: I(Vbl4:p) = 437.8 uA

Notice from spectre during info, during DC analysis `LeakStat', during task `MDLControl'.
    No outputs were found. Loosening output filter criterion to `allpub'.

***************************************
Operating-Point information `LeakStat':
***************************************
Operating point computed in DC analysis `LeakStat' at T = 27 C.

    V(BL1) = 739.643 mV
    V(BL1T) = 800 mV
    V(BL2) = 739.643 mV
    V(BL2T) = 800 mV
    V(BL3) = 739.643 mV
    V(BL3T) = 800 mV
    V(BL4) = 764.445 mV
    V(BL4T) = 800 mV
    V(BL5) = 739.643 mV
    V(BL5T) = 800 mV
    V(BL6) = 739.643 mV
    V(BL6T) = 800 mV
    V(BL7) = 739.643 mV
    V(BL7T) = 800 mV
    V(BL8) = 739.643 mV
    V(BL8T) = 800 mV
    V(ENBl1) = 0 V
    V(ENBl2) = 0 V
    V(ENBl3) = 0 V
    V(ENBl4) = 1.6 V
    V(ENBl5) = 0 V
    V(ENBl6) = 0 V
    V(ENBl7) = 0 V
    V(ENBl8) = 0 V
    V(ENWl) = 0 V
    V(ENWl1) = 1.6 V
    V(NM1) = 739.643 mV
    V(NM2) = 739.643 mV
    V(NM3) = 739.643 mV
    V(NM4) = 739.643 mV
    V(NM5) = 739.643 mV
    V(NM6) = 739.643 mV
    V(NM7) = 739.643 mV
    V(NM8) = 739.643 mV
    V(NM9) = 739.643 mV
    V(NM10) = 739.643 mV
    V(NM11) = 739.643 mV
    V(NM12) = 739.643 mV
    V(NM13) = 739.643 mV
    V(NM14) = 739.643 mV
    V(NM15) = 739.643 mV
    V(NM16) = 739.643 mV
    V(NM17) = 739.643 mV
    V(NM18) = 739.643 mV
    V(NM19) = 739.643 mV
    V(NM20) = 739.643 mV
    V(NM21) = 739.643 mV
    V(NM22) = 739.643 mV
    V(NM23) = 739.643 mV
    V(NM24) = 739.643 mV
    V(NM25) = 739.643 mV
    V(NM26) = 739.643 mV
    V(NM27) = 739.643 mV
    V(NM28) = 739.643 mV
    V(NM29) = 739.643 mV
    V(NM30) = 739.643 mV
    V(NM31) = 739.643 mV
    V(NM32) = 739.643 mV
    V(NM33) = 739.643 mV
    V(NM34) = 739.643 mV
    V(NM35) = 739.643 mV
    V(NM36) = 739.643 mV
    V(NM37) = 739.643 mV
    V(NM38) = 739.643 mV
    V(NM39) = 739.643 mV
    V(NM40) = 739.643 mV
    V(NM41) = 739.643 mV
    V(NM42) = 739.643 mV
    V(NM43) = 739.643 mV
    V(NM44) = 739.643 mV
    V(NM45) = 739.643 mV
    V(NM46) = 739.643 mV
    V(NM47) = 739.643 mV
    V(NM48) = 739.643 mV
    V(NM49) = 739.643 mV
    V(NM50) = 739.643 mV
    V(NM51) = 739.643 mV
    V(NM52) = 739.643 mV
    V(NM53) = 739.643 mV
    V(NM54) = 739.643 mV
    V(NM55) = 739.643 mV
    V(NM56) = 739.643 mV
    V(NM57) = 739.643 mV
    V(NM58) = 739.643 mV
    V(NM59) = 739.643 mV
    V(NM60) = 739.643 mV
    V(NM61) = 739.643 mV
    V(NM62) = 739.643 mV
    V(NM63) = 739.643 mV
    V(NM64) = 739.643 mV
    V(NM65) = 739.643 mV
    V(NM66) = 739.643 mV
    V(NM67) = 739.643 mV
    V(NM68) = 739.643 mV
    V(NM69) = 739.643 mV
    V(NM70) = 739.643 mV
    V(NM71) = 739.643 mV
    V(NM72) = 739.643 mV
    V(NM73) = 739.643 mV
    V(NM74) = 739.643 mV
    V(NM75) = 739.643 mV
    V(NM76) = 739.643 mV
    V(NM77) = 739.643 mV
    V(NM78) = 739.643 mV
    V(NM79) = 739.643 mV
    V(NM80) = 739.643 mV
    V(NM81) = 739.643 mV
    V(NM82) = 739.643 mV
    V(NM83) = 739.643 mV
    V(NM84) = 739.643 mV
    V(NM85) = 739.643 mV
    V(NM86) = 739.643 mV
    V(NM87) = 739.643 mV
    V(NM88) = 739.643 mV
    V(NM89) = 739.643 mV
    V(NM90) = 739.643 mV
    V(NM91) = 739.643 mV
    V(NM92) = 739.643 mV
    V(NM93) = 739.643 mV
    V(NM94) = 739.643 mV
    V(NM95) = 739.643 mV
    V(NM96) = 739.643 mV
    V(NM97) = 764.445 mV
    V(NM98) = 764.445 mV
    V(NM99) = 764.445 mV
    V(NM100) = 764.445 mV
    V(NM101) = 764.445 mV
    V(NM102) = 764.445 mV
    V(NM103) = 764.445 mV
    V(NM104) = 764.445 mV
    V(NM105) = 764.445 mV
    V(NM106) = 764.445 mV
    V(NM107) = 764.445 mV
    V(NM108) = 764.445 mV
    V(NM109) = 764.445 mV
    V(NM110) = 764.445 mV
    V(NM111) = 764.445 mV
    V(NM112) = 764.445 mV
    V(NM113) = 764.445 mV
    V(NM114) = 764.445 mV
    V(NM115) = 764.445 mV
    V(NM116) = 764.445 mV
    V(NM117) = 764.445 mV
    V(NM118) = 764.445 mV
    V(NM119) = 764.445 mV
    V(NM120) = 764.445 mV
    V(NM121) = 764.445 mV
    V(NM122) = 764.445 mV
    V(NM123) = 764.445 mV
    V(NM124) = 764.445 mV
    V(NM125) = 764.445 mV
    V(NM126) = 764.445 mV
    V(NM127) = 764.445 mV
    V(NM128) = 764.445 mV
    V(NM129) = 739.643 mV
    V(NM130) = 739.643 mV
    V(NM131) = 739.643 mV
    V(NM132) = 739.643 mV
    V(NM133) = 739.643 mV
    V(NM134) = 739.643 mV
    V(NM135) = 739.643 mV
    V(NM136) = 739.643 mV
    V(NM137) = 739.643 mV
    V(NM138) = 739.643 mV
    V(NM139) = 739.643 mV
    V(NM140) = 739.643 mV
    V(NM141) = 739.643 mV
    V(NM142) = 739.643 mV
    V(NM143) = 739.643 mV
    V(NM144) = 739.643 mV
    V(NM145) = 739.643 mV
    V(NM146) = 739.643 mV
    V(NM147) = 739.643 mV
    V(NM148) = 739.643 mV
    V(NM149) = 739.643 mV
    V(NM150) = 739.643 mV
    V(NM151) = 739.643 mV
    V(NM152) = 739.643 mV
    V(NM153) = 739.643 mV
    V(NM154) = 739.643 mV
    V(NM155) = 739.643 mV
    V(NM156) = 739.643 mV
    V(NM157) = 739.643 mV
    V(NM158) = 739.643 mV
    V(NM159) = 739.643 mV
    V(NM160) = 739.643 mV
    V(NM161) = 739.643 mV
    V(NM162) = 739.643 mV
    V(NM163) = 739.643 mV
    V(NM164) = 739.643 mV
    V(NM165) = 739.643 mV
    V(NM166) = 739.643 mV
    V(NM167) = 739.643 mV
    V(NM168) = 739.643 mV
    V(NM169) = 739.643 mV
    V(NM170) = 739.643 mV
    V(NM171) = 739.643 mV
    V(NM172) = 739.643 mV
    V(NM173) = 739.643 mV
    V(NM174) = 739.643 mV
    V(NM175) = 739.643 mV
    V(NM176) = 739.643 mV
    V(NM177) = 739.643 mV
    V(NM178) = 739.643 mV
    V(NM179) = 739.643 mV
    V(NM180) = 739.643 mV
    V(NM181) = 739.643 mV
    V(NM182) = 739.643 mV
    V(NM183) = 739.643 mV
    V(NM184) = 739.643 mV
    V(NM185) = 739.643 mV
    V(NM186) = 739.643 mV
    V(NM187) = 739.643 mV
    V(NM188) = 739.643 mV
    V(NM189) = 739.643 mV
    V(NM190) = 739.643 mV
    V(NM191) = 739.643 mV
    V(NM192) = 739.643 mV
    V(NM193) = 739.643 mV
    V(NM194) = 739.643 mV
    V(NM195) = 739.643 mV
    V(NM196) = 739.643 mV
    V(NM197) = 739.643 mV
    V(NM198) = 739.643 mV
    V(NM199) = 739.643 mV
    V(NM200) = 739.643 mV
    V(NM201) = 739.643 mV
    V(NM202) = 739.643 mV
    V(NM203) = 739.643 mV
    V(NM204) = 739.643 mV
    V(NM205) = 739.643 mV
    V(NM206) = 739.643 mV
    V(NM207) = 739.643 mV
    V(NM208) = 739.643 mV
    V(NM209) = 739.643 mV
    V(NM210) = 739.643 mV
    V(NM211) = 739.643 mV
    V(NM212) = 739.643 mV
    V(NM213) = 739.643 mV
    V(NM214) = 739.643 mV
    V(NM215) = 739.643 mV
    V(NM216) = 739.643 mV
    V(NM217) = 739.643 mV
    V(NM218) = 739.643 mV
    V(NM219) = 739.643 mV
    V(NM220) = 739.643 mV
    V(NM221) = 739.643 mV
    V(NM222) = 739.643 mV
    V(NM223) = 739.643 mV
    V(NM224) = 739.643 mV
    V(NM225) = 739.643 mV
    V(NM226) = 739.643 mV
    V(NM227) = 739.643 mV
    V(NM228) = 739.643 mV
    V(NM229) = 739.643 mV
    V(NM230) = 739.643 mV
    V(NM231) = 739.643 mV
    V(NM232) = 739.643 mV
    V(NM233) = 739.643 mV
    V(NM234) = 739.643 mV
    V(NM235) = 739.643 mV
    V(NM236) = 739.643 mV
    V(NM237) = 739.643 mV
    V(NM238) = 739.643 mV
    V(NM239) = 739.643 mV
    V(NM240) = 739.643 mV
    V(NM241) = 739.643 mV
    V(NM242) = 739.643 mV
    V(NM243) = 739.643 mV
    V(NM244) = 739.643 mV
    V(NM245) = 739.643 mV
    V(NM246) = 739.643 mV
    V(NM247) = 739.643 mV
    V(NM248) = 739.643 mV
    V(NM249) = 739.643 mV
    V(NM250) = 739.643 mV
    V(NM251) = 739.643 mV
    V(NM252) = 739.643 mV
    V(NM253) = 739.643 mV
    V(NM254) = 739.643 mV
    V(NM255) = 739.643 mV
    V(NM256) = 739.643 mV
    I(Vbl1:p) = -120.714 fA
    I(Vbl1en:p) = 4.9379 nA
    I(Vbl2:p) = -120.714 fA
    I(Vbl2en:p) = 4.9379 nA
    I(Vbl3:p) = -120.714 fA
    I(Vbl3en:p) = 4.9379 nA
    I(Vbl4:p) = -437.846 uA
    I(Vbl4en:p) = -25.1984 nA
    I(Vbl5:p) = -120.714 fA
    I(Vbl5en:p) = 4.9379 nA
    I(Vbl6:p) = -120.714 fA
    I(Vbl6en:p) = 4.9379 nA
    I(Vbl7:p) = -120.714 fA
    I(Vbl7en:p) = 4.9379 nA
    I(Vbl8:p) = -120.714 fA
    I(Vbl8en:p) = 4.9379 nA
    V(Vdd) = 1.6 V
    I(Vtest1:p) = -1.72304 uA
    I(Vtest2:p) = -1.72304 uA
    I(Vtest3:p) = -1.72304 uA
    I(Vtest4:p) = -1.72304 uA
    I(Vtest5:p) = -1.72304 uA
    I(Vtest6:p) = -1.72304 uA
    I(Vtest7:p) = -1.72304 uA
    I(Vtest8:p) = -1.72304 uA
    I(Vtest9:p) = -1.72304 uA
    I(Vtest10:p) = -1.72304 uA
    I(Vtest11:p) = -1.72304 uA
    I(Vtest12:p) = -1.72304 uA
    I(Vtest13:p) = -1.72304 uA
    I(Vtest14:p) = -1.72304 uA
    I(Vtest15:p) = -1.72304 uA
    I(Vtest16:p) = -20.5499 uA
    I(Vtest17:p) = -1.72304 uA
    I(Vtest18:p) = -1.72304 uA
    I(Vtest19:p) = -1.72304 uA
    I(Vtest20:p) = -1.72304 uA
    I(Vtest21:p) = -1.72304 uA
    I(Vtest22:p) = -1.72304 uA
    I(Vtest23:p) = -1.72304 uA
    I(Vtest24:p) = -1.72304 uA
    I(Vtest25:p) = -1.72304 uA
    I(Vtest26:p) = -1.72304 uA
    I(Vtest27:p) = -1.72304 uA
    I(Vtest28:p) = -1.72304 uA
    I(Vtest29:p) = -1.72304 uA
    I(Vtest30:p) = -1.72304 uA
    I(Vtest31:p) = -1.72304 uA
    I(Vtest32:p) = -1.72304 uA
    I(Vtest33:p) = -1.72304 uA
    I(Vtest34:p) = -1.72304 uA
    I(Vtest35:p) = -1.72304 uA
    I(Vtest36:p) = -1.72304 uA
    I(Vtest37:p) = -1.72304 uA
    I(Vtest38:p) = -1.72304 uA
    I(Vtest39:p) = -1.72304 uA
    I(Vtest40:p) = -1.72304 uA
    I(Vtest41:p) = -1.72304 uA
    I(Vtest42:p) = -1.72304 uA
    I(Vtest43:p) = -1.72304 uA
    I(Vtest44:p) = -1.72304 uA
    I(Vtest45:p) = -1.72304 uA
    I(Vtest46:p) = -1.72304 uA
    I(Vtest47:p) = -1.72304 uA
    I(Vtest48:p) = -20.5499 uA
    I(Vtest49:p) = -1.72304 uA
    I(Vtest50:p) = -1.72304 uA
    I(Vtest51:p) = -1.72304 uA
    I(Vtest52:p) = -1.72304 uA
    I(Vtest53:p) = -1.72304 uA
    I(Vtest54:p) = -1.72304 uA
    I(Vtest55:p) = -1.72304 uA
    I(Vtest56:p) = -1.72304 uA
    I(Vtest57:p) = -1.72304 uA
    I(Vtest58:p) = -1.72304 uA
    I(Vtest59:p) = -1.72304 uA
    I(Vtest60:p) = -1.72304 uA
    I(Vtest61:p) = -1.72304 uA
    I(Vtest62:p) = -1.72304 uA
    I(Vtest63:p) = -1.72304 uA
    I(Vtest64:p) = -1.72304 uA
    I(Vtest65:p) = -1.72304 uA
    I(Vtest66:p) = -1.72304 uA
    I(Vtest67:p) = -1.72304 uA
    I(Vtest68:p) = -1.72304 uA
    I(Vtest69:p) = -1.72304 uA
    I(Vtest70:p) = -1.72304 uA
    I(Vtest71:p) = -1.72304 uA
    I(Vtest72:p) = -1.72304 uA
    I(Vtest73:p) = -1.72304 uA
    I(Vtest74:p) = -1.72304 uA
    I(Vtest75:p) = -1.72304 uA
    I(Vtest76:p) = -1.72304 uA
    I(Vtest77:p) = -1.72304 uA
    I(Vtest78:p) = -1.72304 uA
    I(Vtest79:p) = -1.72304 uA
    I(Vtest80:p) = -20.5499 uA
    I(Vtest81:p) = -1.72304 uA
    I(Vtest82:p) = -1.72304 uA
    I(Vtest83:p) = -1.72304 uA
    I(Vtest84:p) = -1.72304 uA
    I(Vtest85:p) = -1.72304 uA
    I(Vtest86:p) = -1.72304 uA
    I(Vtest87:p) = -1.72304 uA
    I(Vtest88:p) = -1.72304 uA
    I(Vtest89:p) = -1.72304 uA
    I(Vtest90:p) = -1.72304 uA
    I(Vtest91:p) = -1.72304 uA
    I(Vtest92:p) = -1.72304 uA
    I(Vtest93:p) = -1.72304 uA
    I(Vtest94:p) = -1.72304 uA
    I(Vtest95:p) = -1.72304 uA
    I(Vtest96:p) = -1.72304 uA
    I(Vtest97:p) = 12.0613 uA
    I(Vtest98:p) = 12.0613 uA
    I(Vtest99:p) = 12.0613 uA
    I(Vtest100:p) = 12.0613 uA
    I(Vtest101:p) = 12.0613 uA
    I(Vtest102:p) = 12.0613 uA
    I(Vtest103:p) = 12.0613 uA
    I(Vtest104:p) = 12.0613 uA
    I(Vtest105:p) = 12.0613 uA
    I(Vtest106:p) = 12.0613 uA
    I(Vtest107:p) = 12.0613 uA
    I(Vtest108:p) = 12.0613 uA
    I(Vtest109:p) = 12.0613 uA
    I(Vtest110:p) = 12.0613 uA
    I(Vtest111:p) = 12.0613 uA
    I(Vtest112:p) = -12.4991 uA
    I(Vtest113:p) = 12.0613 uA
    I(Vtest114:p) = 12.0613 uA
    I(Vtest115:p) = 12.0613 uA
    I(Vtest116:p) = 12.0613 uA
    I(Vtest117:p) = 12.0613 uA
    I(Vtest118:p) = 12.0613 uA
    I(Vtest119:p) = 12.0613 uA
    I(Vtest120:p) = 12.0613 uA
    I(Vtest121:p) = 12.0613 uA
    I(Vtest122:p) = 12.0613 uA
    I(Vtest123:p) = 12.0613 uA
    I(Vtest124:p) = 12.0613 uA
    I(Vtest125:p) = 12.0613 uA
    I(Vtest126:p) = 12.0613 uA
    I(Vtest127:p) = 12.0613 uA
    I(Vtest128:p) = 12.0613 uA
    I(Vtest129:p) = -1.72304 uA
    I(Vtest130:p) = -1.72304 uA
    I(Vtest131:p) = -1.72304 uA
    I(Vtest132:p) = -1.72304 uA
    I(Vtest133:p) = -1.72304 uA
    I(Vtest134:p) = -1.72304 uA
    I(Vtest135:p) = -1.72304 uA
    I(Vtest136:p) = -1.72304 uA
    I(Vtest137:p) = -1.72304 uA
    I(Vtest138:p) = -1.72304 uA
    I(Vtest139:p) = -1.72304 uA
    I(Vtest140:p) = -1.72304 uA
    I(Vtest141:p) = -1.72304 uA
    I(Vtest142:p) = -1.72304 uA
    I(Vtest143:p) = -1.72304 uA
    I(Vtest144:p) = -20.5499 uA
    I(Vtest145:p) = -1.72304 uA
    I(Vtest146:p) = -1.72304 uA
    I(Vtest147:p) = -1.72304 uA
    I(Vtest148:p) = -1.72304 uA
    I(Vtest149:p) = -1.72304 uA
    I(Vtest150:p) = -1.72304 uA
    I(Vtest151:p) = -1.72304 uA
    I(Vtest152:p) = -1.72304 uA
    I(Vtest153:p) = -1.72304 uA
    I(Vtest154:p) = -1.72304 uA
    I(Vtest155:p) = -1.72304 uA
    I(Vtest156:p) = -1.72304 uA
    I(Vtest157:p) = -1.72304 uA
    I(Vtest158:p) = -1.72304 uA
    I(Vtest159:p) = -1.72304 uA
    I(Vtest160:p) = -1.72304 uA
    I(Vtest161:p) = -1.72304 uA
    I(Vtest162:p) = -1.72304 uA
    I(Vtest163:p) = -1.72304 uA
    I(Vtest164:p) = -1.72304 uA
    I(Vtest165:p) = -1.72304 uA
    I(Vtest166:p) = -1.72304 uA
    I(Vtest167:p) = -1.72304 uA
    I(Vtest168:p) = -1.72304 uA
    I(Vtest169:p) = -1.72304 uA
    I(Vtest170:p) = -1.72304 uA
    I(Vtest171:p) = -1.72304 uA
    I(Vtest172:p) = -1.72304 uA
    I(Vtest173:p) = -1.72304 uA
    I(Vtest174:p) = -1.72304 uA
    I(Vtest175:p) = -1.72304 uA
    I(Vtest176:p) = -20.5499 uA
    I(Vtest177:p) = -1.72304 uA
    I(Vtest178:p) = -1.72304 uA
    I(Vtest179:p) = -1.72304 uA
    I(Vtest180:p) = -1.72304 uA
    I(Vtest181:p) = -1.72304 uA
    I(Vtest182:p) = -1.72304 uA
    I(Vtest183:p) = -1.72304 uA
    I(Vtest184:p) = -1.72304 uA
    I(Vtest185:p) = -1.72304 uA
    I(Vtest186:p) = -1.72304 uA
    I(Vtest187:p) = -1.72304 uA
    I(Vtest188:p) = -1.72304 uA
    I(Vtest189:p) = -1.72304 uA
    I(Vtest190:p) = -1.72304 uA
    I(Vtest191:p) = -1.72304 uA
    I(Vtest192:p) = -1.72304 uA
    I(Vtest193:p) = -1.72304 uA
    I(Vtest194:p) = -1.72304 uA
    I(Vtest195:p) = -1.72304 uA
    I(Vtest196:p) = -1.72304 uA
    I(Vtest197:p) = -1.72304 uA
    I(Vtest198:p) = -1.72304 uA
    I(Vtest199:p) = -1.72304 uA
    I(Vtest200:p) = -1.72304 uA
    I(Vtest201:p) = -1.72304 uA
    I(Vtest202:p) = -1.72304 uA
    I(Vtest203:p) = -1.72304 uA
    I(Vtest204:p) = -1.72304 uA
    I(Vtest205:p) = -1.72304 uA
    I(Vtest206:p) = -1.72304 uA
    I(Vtest207:p) = -1.72304 uA
    I(Vtest208:p) = -20.5499 uA
    I(Vtest209:p) = -1.72304 uA
    I(Vtest210:p) = -1.72304 uA
    I(Vtest211:p) = -1.72304 uA
    I(Vtest212:p) = -1.72304 uA
    I(Vtest213:p) = -1.72304 uA
    I(Vtest214:p) = -1.72304 uA
    I(Vtest215:p) = -1.72304 uA
    I(Vtest216:p) = -1.72304 uA
    I(Vtest217:p) = -1.72304 uA
    I(Vtest218:p) = -1.72304 uA
    I(Vtest219:p) = -1.72304 uA
    I(Vtest220:p) = -1.72304 uA
    I(Vtest221:p) = -1.72304 uA
    I(Vtest222:p) = -1.72304 uA
    I(Vtest223:p) = -1.72304 uA
    I(Vtest224:p) = -1.72304 uA
    I(Vtest225:p) = -1.72304 uA
    I(Vtest226:p) = -1.72304 uA
    I(Vtest227:p) = -1.72304 uA
    I(Vtest228:p) = -1.72304 uA
    I(Vtest229:p) = -1.72304 uA
    I(Vtest230:p) = -1.72304 uA
    I(Vtest231:p) = -1.72304 uA
    I(Vtest232:p) = -1.72304 uA
    I(Vtest233:p) = -1.72304 uA
    I(Vtest234:p) = -1.72304 uA
    I(Vtest235:p) = -1.72304 uA
    I(Vtest236:p) = -1.72304 uA
    I(Vtest237:p) = -1.72304 uA
    I(Vtest238:p) = -1.72304 uA
    I(Vtest239:p) = -1.72304 uA
    I(Vtest240:p) = -20.5499 uA
    I(Vtest241:p) = -1.72304 uA
    I(Vtest242:p) = -1.72304 uA
    I(Vtest243:p) = -1.72304 uA
    I(Vtest244:p) = -1.72304 uA
    I(Vtest245:p) = -1.72304 uA
    I(Vtest246:p) = -1.72304 uA
    I(Vtest247:p) = -1.72304 uA
    I(Vtest248:p) = -1.72304 uA
    I(Vtest249:p) = -1.72304 uA
    I(Vtest250:p) = -1.72304 uA
    I(Vtest251:p) = -1.72304 uA
    I(Vtest252:p) = -1.72304 uA
    I(Vtest253:p) = -1.72304 uA
    I(Vtest254:p) = -1.72304 uA
    I(Vtest255:p) = -1.72304 uA
    I(Vtest256:p) = -1.72304 uA
    I(Vvdd:p) = -7.14033 uA
    I(Vwl1:p) = -114.511 fA
    I(Vwl2:p) = -114.511 fA
    I(Vwl3:p) = -114.511 fA
    I(Vwl4:p) = -114.511 fA
    I(Vwl5:p) = -114.511 fA
    I(Vwl6:p) = -114.511 fA
    I(Vwl7:p) = -114.511 fA
    I(Vwl8:p) = -114.511 fA
    I(Vwl9:p) = -114.511 fA
    I(Vwl10:p) = -114.511 fA
    I(Vwl11:p) = -114.511 fA
    I(Vwl12:p) = -114.511 fA
    I(Vwl13:p) = -114.511 fA
    I(Vwl14:p) = -114.511 fA
    I(Vwl15:p) = -114.511 fA
    I(Vwl16:p) = -156.349 uA
    I(Vwl17:p) = -114.511 fA
    I(Vwl18:p) = -114.511 fA
    I(Vwl19:p) = -114.511 fA
    I(Vwl20:p) = -114.511 fA
    I(Vwl21:p) = -114.511 fA
    I(Vwl22:p) = -114.511 fA
    I(Vwl23:p) = -114.511 fA
    I(Vwl24:p) = -114.511 fA
    I(Vwl25:p) = -114.511 fA
    I(Vwl26:p) = -114.511 fA
    I(Vwl27:p) = -114.511 fA
    I(Vwl28:p) = -114.511 fA
    I(Vwl29:p) = -114.511 fA
    I(Vwl30:p) = -114.511 fA
    I(Vwl31:p) = -114.511 fA
    I(Vwl32:p) = -114.511 fA
    I(Vwlen1:p) = -25.1549 nA
    I(Vwlen:p) = 153.075 nA
    V(WL1) = 742.744 mV
    V(WL1T) = 800 mV
    V(WL2) = 742.744 mV
    V(WL2T) = 800 mV
    V(WL3) = 742.744 mV
    V(WL3T) = 800 mV
    V(WL4) = 742.744 mV
    V(WL4T) = 800 mV
    V(WL5) = 742.744 mV
    V(WL5T) = 800 mV
    V(WL6) = 742.744 mV
    V(WL6T) = 800 mV
    V(WL7) = 742.744 mV
    V(WL7T) = 800 mV
    V(WL8) = 742.744 mV
    V(WL8T) = 800 mV
    V(WL9) = 742.744 mV
    V(WL9T) = 800 mV
    V(WL10) = 742.744 mV
    V(WL10T) = 800 mV
    V(WL11) = 742.744 mV
    V(WL11T) = 800 mV
    V(WL12) = 742.744 mV
    V(WL12T) = 800 mV
    V(WL13) = 742.744 mV
    V(WL13T) = 800 mV
    V(WL14) = 742.744 mV
    V(WL14T) = 800 mV
    V(WL15) = 742.744 mV
    V(WL15T) = 800 mV
    V(WL16) = 786.932 mV
    V(WL16T) = 800 mV
    V(WL17) = 742.744 mV
    V(WL17T) = 800 mV
    V(WL18) = 742.744 mV
    V(WL18T) = 800 mV
    V(WL19) = 742.744 mV
    V(WL19T) = 800 mV
    V(WL20) = 742.744 mV
    V(WL20T) = 800 mV
    V(WL21) = 742.744 mV
    V(WL21T) = 800 mV
    V(WL22) = 742.744 mV
    V(WL22T) = 800 mV
    V(WL23) = 742.744 mV
    V(WL23T) = 800 mV
    V(WL24) = 742.744 mV
    V(WL24T) = 800 mV
    V(WL25) = 742.744 mV
    V(WL25T) = 800 mV
    V(WL26) = 742.744 mV
    V(WL26T) = 800 mV
    V(WL27) = 742.744 mV
    V(WL27T) = 800 mV
    V(WL28) = 742.744 mV
    V(WL28T) = 800 mV
    V(WL29) = 742.744 mV
    V(WL29T) = 800 mV
    V(WL30) = 742.744 mV
    V(WL30T) = 800 mV
    V(WL31) = 742.744 mV
    V(WL31T) = 800 mV
    V(WL32) = 742.744 mV
    V(WL32T) = 800 mV
    V(X1.n50) = -423.342 fV
    V(X1.n51) = 423.334 mV
    V(X1.n60) = 0 V
    V(X1.n61) = 423.334 mV
    V(X1.nBiStable) = 73.6543 mV
    V(X1.nFeedback) = 7.36543 uV
    V(X1.nINeg) = 0 V
    V(X1.nIPos) = 17.3797 mV
    V(X1.nRVFit) = 1.79998 V
    V(X1.nVCR1) = 739.643 mV
    V(X1.nVCtrl) = 1.79998 V
    V(X1.nVDec) = -7.35733 mV
    V(X1.nVTMR) = 1.8 V
    I(X1.vISample:p) = -1.72304 uA
    V(X2.n50) = -423.342 fV
    V(X2.n51) = 423.334 mV
    V(X2.n60) = 0 V
    V(X2.n61) = 423.334 mV
    V(X2.nBiStable) = 73.6543 mV
    V(X2.nFeedback) = 7.36543 uV
    V(X2.nINeg) = 0 V
    V(X2.nIPos) = 17.3797 mV
    V(X2.nRVFit) = 1.79998 V
    V(X2.nVCR1) = 739.643 mV
    V(X2.nVCtrl) = 1.79998 V
    V(X2.nVDec) = -7.35733 mV
    V(X2.nVTMR) = 1.8 V
    I(X2.vISample:p) = -1.72304 uA
    V(X3.n50) = -423.342 fV
    V(X3.n51) = 423.334 mV
    V(X3.n60) = 0 V
    V(X3.n61) = 423.334 mV
    V(X3.nBiStable) = 73.6543 mV
    V(X3.nFeedback) = 7.36543 uV
    V(X3.nINeg) = 0 V
    V(X3.nIPos) = 17.3797 mV
    V(X3.nRVFit) = 1.79998 V
    V(X3.nVCR1) = 739.643 mV
    V(X3.nVCtrl) = 1.79998 V
    V(X3.nVDec) = -7.35733 mV
    V(X3.nVTMR) = 1.8 V
    I(X3.vISample:p) = -1.72304 uA
    V(X4.n50) = -423.342 fV
    V(X4.n51) = 423.334 mV
    V(X4.n60) = 0 V
    V(X4.n61) = 423.334 mV
    V(X4.nBiStable) = 73.6543 mV
    V(X4.nFeedback) = 7.36543 uV
    V(X4.nINeg) = 0 V
    V(X4.nIPos) = 17.3797 mV
    V(X4.nRVFit) = 1.79998 V
    V(X4.nVCR1) = 739.643 mV
    V(X4.nVCtrl) = 1.79998 V
    V(X4.nVDec) = -7.35733 mV
    V(X4.nVTMR) = 1.8 V
    I(X4.vISample:p) = -1.72304 uA
    V(X5.n50) = -423.342 fV
    V(X5.n51) = 423.334 mV
    V(X5.n60) = 0 V
    V(X5.n61) = 423.334 mV
    V(X5.nBiStable) = 73.6543 mV
    V(X5.nFeedback) = 7.36543 uV
    V(X5.nINeg) = 0 V
    V(X5.nIPos) = 17.3797 mV
    V(X5.nRVFit) = 1.79998 V
    V(X5.nVCR1) = 739.643 mV
    V(X5.nVCtrl) = 1.79998 V
    V(X5.nVDec) = -7.35733 mV
    V(X5.nVTMR) = 1.8 V
    I(X5.vISample:p) = -1.72304 uA
    V(X6.n50) = -423.342 fV
    V(X6.n51) = 423.334 mV
    V(X6.n60) = 0 V
    V(X6.n61) = 423.334 mV
    V(X6.nBiStable) = 73.6543 mV
    V(X6.nFeedback) = 7.36543 uV
    V(X6.nINeg) = 0 V
    V(X6.nIPos) = 17.3797 mV
    V(X6.nRVFit) = 1.79998 V
    V(X6.nVCR1) = 739.643 mV
    V(X6.nVCtrl) = 1.79998 V
    V(X6.nVDec) = -7.35733 mV
    V(X6.nVTMR) = 1.8 V
    I(X6.vISample:p) = -1.72304 uA
    V(X7.n50) = -423.342 fV
    V(X7.n51) = 423.334 mV
    V(X7.n60) = 0 V
    V(X7.n61) = 423.334 mV
    V(X7.nBiStable) = 73.6543 mV
    V(X7.nFeedback) = 7.36543 uV
    V(X7.nINeg) = 0 V
    V(X7.nIPos) = 17.3797 mV
    V(X7.nRVFit) = 1.79998 V
    V(X7.nVCR1) = 739.643 mV
    V(X7.nVCtrl) = 1.79998 V
    V(X7.nVDec) = -7.35733 mV
    V(X7.nVTMR) = 1.8 V
    I(X7.vISample:p) = -1.72304 uA
    V(X8.n50) = -423.342 fV
    V(X8.n51) = 423.334 mV
    V(X8.n60) = 0 V
    V(X8.n61) = 423.334 mV
    V(X8.nBiStable) = 73.6543 mV
    V(X8.nFeedback) = 7.36543 uV
    V(X8.nINeg) = 0 V
    V(X8.nIPos) = 17.3797 mV
    V(X8.nRVFit) = 1.79998 V
    V(X8.nVCR1) = 739.643 mV
    V(X8.nVCtrl) = 1.79998 V
    V(X8.nVDec) = -7.35733 mV
    V(X8.nVTMR) = 1.8 V
    I(X8.vISample:p) = -1.72304 uA
    V(X9.n50) = -423.342 fV
    V(X9.n51) = 423.334 mV
    V(X9.n60) = 0 V
    V(X9.n61) = 423.334 mV
    V(X9.nBiStable) = 73.6543 mV
    V(X9.nFeedback) = 7.36543 uV
    V(X9.nINeg) = 0 V
    V(X9.nIPos) = 17.3797 mV
    V(X9.nRVFit) = 1.79998 V
    V(X9.nVCR1) = 739.643 mV
    V(X9.nVCtrl) = 1.79998 V
    V(X9.nVDec) = -7.35733 mV
    V(X9.nVTMR) = 1.8 V
    I(X9.vISample:p) = -1.72304 uA
    V(X10.n50) = -423.342 fV
    V(X10.n51) = 423.334 mV
    V(X10.n60) = 0 V
    V(X10.n61) = 423.334 mV
    V(X10.nBiStable) = 73.6543 mV
    V(X10.nFeedback) = 7.36543 uV
    V(X10.nINeg) = 0 V
    V(X10.nIPos) = 17.3797 mV
    V(X10.nRVFit) = 1.79998 V
    V(X10.nVCR1) = 739.643 mV
    V(X10.nVCtrl) = 1.79998 V
    V(X10.nVDec) = -7.35733 mV
    V(X10.nVTMR) = 1.8 V
    I(X10.vISample:p) = -1.72304 uA
    V(X11.n50) = -423.342 fV
    V(X11.n51) = 423.334 mV
    V(X11.n60) = 0 V
    V(X11.n61) = 423.334 mV
    V(X11.nBiStable) = 73.6543 mV
    V(X11.nFeedback) = 7.36543 uV
    V(X11.nINeg) = 0 V
    V(X11.nIPos) = 17.3797 mV
    V(X11.nRVFit) = 1.79998 V
    V(X11.nVCR1) = 739.643 mV
    V(X11.nVCtrl) = 1.79998 V
    V(X11.nVDec) = -7.35733 mV
    V(X11.nVTMR) = 1.8 V
    I(X11.vISample:p) = -1.72304 uA
    V(X12.n50) = -423.342 fV
    V(X12.n51) = 423.334 mV
    V(X12.n60) = 0 V
    V(X12.n61) = 423.334 mV
    V(X12.nBiStable) = 73.6543 mV
    V(X12.nFeedback) = 7.36543 uV
    V(X12.nINeg) = 0 V
    V(X12.nIPos) = 17.3797 mV
    V(X12.nRVFit) = 1.79998 V
    V(X12.nVCR1) = 739.643 mV
    V(X12.nVCtrl) = 1.79998 V
    V(X12.nVDec) = -7.35733 mV
    V(X12.nVTMR) = 1.8 V
    I(X12.vISample:p) = -1.72304 uA
    V(X13.n50) = -423.342 fV
    V(X13.n51) = 423.334 mV
    V(X13.n60) = 0 V
    V(X13.n61) = 423.334 mV
    V(X13.nBiStable) = 73.6543 mV
    V(X13.nFeedback) = 7.36543 uV
    V(X13.nINeg) = 0 V
    V(X13.nIPos) = 17.3797 mV
    V(X13.nRVFit) = 1.79998 V
    V(X13.nVCR1) = 739.643 mV
    V(X13.nVCtrl) = 1.79998 V
    V(X13.nVDec) = -7.35733 mV
    V(X13.nVTMR) = 1.8 V
    I(X13.vISample:p) = -1.72304 uA
    V(X14.n50) = -423.342 fV
    V(X14.n51) = 423.334 mV
    V(X14.n60) = 0 V
    V(X14.n61) = 423.334 mV
    V(X14.nBiStable) = 73.6543 mV
    V(X14.nFeedback) = 7.36543 uV
    V(X14.nINeg) = 0 V
    V(X14.nIPos) = 17.3797 mV
    V(X14.nRVFit) = 1.79998 V
    V(X14.nVCR1) = 739.643 mV
    V(X14.nVCtrl) = 1.79998 V
    V(X14.nVDec) = -7.35733 mV
    V(X14.nVTMR) = 1.8 V
    I(X14.vISample:p) = -1.72304 uA
    V(X15.n50) = -423.342 fV
    V(X15.n51) = 423.334 mV
    V(X15.n60) = 0 V
    V(X15.n61) = 423.334 mV
    V(X15.nBiStable) = 73.6543 mV
    V(X15.nFeedback) = 7.36543 uV
    V(X15.nINeg) = 0 V
    V(X15.nIPos) = 17.3797 mV
    V(X15.nRVFit) = 1.79998 V
    V(X15.nVCR1) = 739.643 mV
    V(X15.nVCtrl) = 1.79998 V
    V(X15.nVDec) = -7.35733 mV
    V(X15.nVTMR) = 1.8 V
    I(X15.vISample:p) = -1.72304 uA
    V(X16.n50) = -5.76019 pV
    V(X16.n51) = 1.01 V
    V(X16.n60) = 0 V
    V(X16.n61) = 1.01 V
    V(X16.nBiStable) = 2.3067 V
    V(X16.nFeedback) = 230.67 uV
    V(X16.nINeg) = 0 V
    V(X16.nIPos) = 228.135 mV
    V(X16.nRVFit) = 2.30155 V
    V(X16.nVCR1) = 739.643 mV
    V(X16.nVCtrl) = 2.30155 V
    V(X16.nVDec) = -230.416 mV
    V(X16.nVTMR) = 2.3067 V
    I(X16.vISample:p) = -20.5499 uA
    V(X17.n50) = -423.342 fV
    V(X17.n51) = 423.334 mV
    V(X17.n60) = 0 V
    V(X17.n61) = 423.334 mV
    V(X17.nBiStable) = 73.6543 mV
    V(X17.nFeedback) = 7.36543 uV
    V(X17.nINeg) = 0 V
    V(X17.nIPos) = 17.3797 mV
    V(X17.nRVFit) = 1.79998 V
    V(X17.nVCR1) = 739.643 mV
    V(X17.nVCtrl) = 1.79998 V
    V(X17.nVDec) = -7.35733 mV
    V(X17.nVTMR) = 1.8 V
    I(X17.vISample:p) = -1.72304 uA
    V(X18.n50) = -423.342 fV
    V(X18.n51) = 423.334 mV
    V(X18.n60) = 0 V
    V(X18.n61) = 423.334 mV
    V(X18.nBiStable) = 73.6543 mV
    V(X18.nFeedback) = 7.36543 uV
    V(X18.nINeg) = 0 V
    V(X18.nIPos) = 17.3797 mV
    V(X18.nRVFit) = 1.79998 V
    V(X18.nVCR1) = 739.643 mV
    V(X18.nVCtrl) = 1.79998 V
    V(X18.nVDec) = -7.35733 mV
    V(X18.nVTMR) = 1.8 V
    I(X18.vISample:p) = -1.72304 uA
    V(X19.n50) = -423.342 fV
    V(X19.n51) = 423.334 mV
    V(X19.n60) = 0 V
    V(X19.n61) = 423.334 mV
    V(X19.nBiStable) = 73.6543 mV
    V(X19.nFeedback) = 7.36543 uV
    V(X19.nINeg) = 0 V
    V(X19.nIPos) = 17.3797 mV
    V(X19.nRVFit) = 1.79998 V
    V(X19.nVCR1) = 739.643 mV
    V(X19.nVCtrl) = 1.79998 V
    V(X19.nVDec) = -7.35733 mV
    V(X19.nVTMR) = 1.8 V
    I(X19.vISample:p) = -1.72304 uA
    V(X20.n50) = -423.342 fV
    V(X20.n51) = 423.334 mV
    V(X20.n60) = 0 V
    V(X20.n61) = 423.334 mV
    V(X20.nBiStable) = 73.6543 mV
    V(X20.nFeedback) = 7.36543 uV
    V(X20.nINeg) = 0 V
    V(X20.nIPos) = 17.3797 mV
    V(X20.nRVFit) = 1.79998 V
    V(X20.nVCR1) = 739.643 mV
    V(X20.nVCtrl) = 1.79998 V
    V(X20.nVDec) = -7.35733 mV
    V(X20.nVTMR) = 1.8 V
    I(X20.vISample:p) = -1.72304 uA
    V(X21.n50) = -423.342 fV
    V(X21.n51) = 423.334 mV
    V(X21.n60) = 0 V
    V(X21.n61) = 423.334 mV
    V(X21.nBiStable) = 73.6543 mV
    V(X21.nFeedback) = 7.36543 uV
    V(X21.nINeg) = 0 V
    V(X21.nIPos) = 17.3797 mV
    V(X21.nRVFit) = 1.79998 V
    V(X21.nVCR1) = 739.643 mV
    V(X21.nVCtrl) = 1.79998 V
    V(X21.nVDec) = -7.35733 mV
    V(X21.nVTMR) = 1.8 V
    I(X21.vISample:p) = -1.72304 uA
    V(X22.n50) = -423.342 fV
    V(X22.n51) = 423.334 mV
    V(X22.n60) = 0 V
    V(X22.n61) = 423.334 mV
    V(X22.nBiStable) = 73.6543 mV
    V(X22.nFeedback) = 7.36543 uV
    V(X22.nINeg) = 0 V
    V(X22.nIPos) = 17.3797 mV
    V(X22.nRVFit) = 1.79998 V
    V(X22.nVCR1) = 739.643 mV
    V(X22.nVCtrl) = 1.79998 V
    V(X22.nVDec) = -7.35733 mV
    V(X22.nVTMR) = 1.8 V
    I(X22.vISample:p) = -1.72304 uA
    V(X23.n50) = -423.342 fV
    V(X23.n51) = 423.334 mV
    V(X23.n60) = 0 V
    V(X23.n61) = 423.334 mV
    V(X23.nBiStable) = 73.6543 mV
    V(X23.nFeedback) = 7.36543 uV
    V(X23.nINeg) = 0 V
    V(X23.nIPos) = 17.3797 mV
    V(X23.nRVFit) = 1.79998 V
    V(X23.nVCR1) = 739.643 mV
    V(X23.nVCtrl) = 1.79998 V
    V(X23.nVDec) = -7.35733 mV
    V(X23.nVTMR) = 1.8 V
    I(X23.vISample:p) = -1.72304 uA
    V(X24.n50) = -423.342 fV
    V(X24.n51) = 423.334 mV
    V(X24.n60) = 0 V
    V(X24.n61) = 423.334 mV
    V(X24.nBiStable) = 73.6543 mV
    V(X24.nFeedback) = 7.36543 uV
    V(X24.nINeg) = 0 V
    V(X24.nIPos) = 17.3797 mV
    V(X24.nRVFit) = 1.79998 V
    V(X24.nVCR1) = 739.643 mV
    V(X24.nVCtrl) = 1.79998 V
    V(X24.nVDec) = -7.35733 mV
    V(X24.nVTMR) = 1.8 V
    I(X24.vISample:p) = -1.72304 uA
    V(X25.n50) = -423.342 fV
    V(X25.n51) = 423.334 mV
    V(X25.n60) = 0 V
    V(X25.n61) = 423.334 mV
    V(X25.nBiStable) = 73.6543 mV
    V(X25.nFeedback) = 7.36543 uV
    V(X25.nINeg) = 0 V
    V(X25.nIPos) = 17.3797 mV
    V(X25.nRVFit) = 1.79998 V
    V(X25.nVCR1) = 739.643 mV
    V(X25.nVCtrl) = 1.79998 V
    V(X25.nVDec) = -7.35733 mV
    V(X25.nVTMR) = 1.8 V
    I(X25.vISample:p) = -1.72304 uA
    V(X26.n50) = -423.342 fV
    V(X26.n51) = 423.334 mV
    V(X26.n60) = 0 V
    V(X26.n61) = 423.334 mV
    V(X26.nBiStable) = 73.6543 mV
    V(X26.nFeedback) = 7.36543 uV
    V(X26.nINeg) = 0 V
    V(X26.nIPos) = 17.3797 mV
    V(X26.nRVFit) = 1.79998 V
    V(X26.nVCR1) = 739.643 mV
    V(X26.nVCtrl) = 1.79998 V
    V(X26.nVDec) = -7.35733 mV
    V(X26.nVTMR) = 1.8 V
    I(X26.vISample:p) = -1.72304 uA
    V(X27.n50) = -423.342 fV
    V(X27.n51) = 423.334 mV
    V(X27.n60) = 0 V
    V(X27.n61) = 423.334 mV
    V(X27.nBiStable) = 73.6543 mV
    V(X27.nFeedback) = 7.36543 uV
    V(X27.nINeg) = 0 V
    V(X27.nIPos) = 17.3797 mV
    V(X27.nRVFit) = 1.79998 V
    V(X27.nVCR1) = 739.643 mV
    V(X27.nVCtrl) = 1.79998 V
    V(X27.nVDec) = -7.35733 mV
    V(X27.nVTMR) = 1.8 V
    I(X27.vISample:p) = -1.72304 uA
    V(X28.n50) = -423.342 fV
    V(X28.n51) = 423.334 mV
    V(X28.n60) = 0 V
    V(X28.n61) = 423.334 mV
    V(X28.nBiStable) = 73.6543 mV
    V(X28.nFeedback) = 7.36543 uV
    V(X28.nINeg) = 0 V
    V(X28.nIPos) = 17.3797 mV
    V(X28.nRVFit) = 1.79998 V
    V(X28.nVCR1) = 739.643 mV
    V(X28.nVCtrl) = 1.79998 V
    V(X28.nVDec) = -7.35733 mV
    V(X28.nVTMR) = 1.8 V
    I(X28.vISample:p) = -1.72304 uA
    V(X29.n50) = -423.342 fV
    V(X29.n51) = 423.334 mV
    V(X29.n60) = 0 V
    V(X29.n61) = 423.334 mV
    V(X29.nBiStable) = 73.6543 mV
    V(X29.nFeedback) = 7.36543 uV
    V(X29.nINeg) = 0 V
    V(X29.nIPos) = 17.3797 mV
    V(X29.nRVFit) = 1.79998 V
    V(X29.nVCR1) = 739.643 mV
    V(X29.nVCtrl) = 1.79998 V
    V(X29.nVDec) = -7.35733 mV
    V(X29.nVTMR) = 1.8 V
    I(X29.vISample:p) = -1.72304 uA
    V(X30.n50) = -423.342 fV
    V(X30.n51) = 423.334 mV
    V(X30.n60) = 0 V
    V(X30.n61) = 423.334 mV
    V(X30.nBiStable) = 73.6543 mV
    V(X30.nFeedback) = 7.36543 uV
    V(X30.nINeg) = 0 V
    V(X30.nIPos) = 17.3797 mV
    V(X30.nRVFit) = 1.79998 V
    V(X30.nVCR1) = 739.643 mV
    V(X30.nVCtrl) = 1.79998 V
    V(X30.nVDec) = -7.35733 mV
    V(X30.nVTMR) = 1.8 V
    I(X30.vISample:p) = -1.72304 uA
    V(X31.n50) = -423.342 fV
    V(X31.n51) = 423.334 mV
    V(X31.n60) = 0 V
    V(X31.n61) = 423.334 mV
    V(X31.nBiStable) = 73.6543 mV
    V(X31.nFeedback) = 7.36543 uV
    V(X31.nINeg) = 0 V
    V(X31.nIPos) = 17.3797 mV
    V(X31.nRVFit) = 1.79998 V
    V(X31.nVCR1) = 739.643 mV
    V(X31.nVCtrl) = 1.79998 V
    V(X31.nVDec) = -7.35733 mV
    V(X31.nVTMR) = 1.8 V
    I(X31.vISample:p) = -1.72304 uA
    V(X32.n50) = -423.342 fV
    V(X32.n51) = 423.334 mV
    V(X32.n60) = 0 V
    V(X32.n61) = 423.334 mV
    V(X32.nBiStable) = 73.6543 mV
    V(X32.nFeedback) = 7.36543 uV
    V(X32.nINeg) = 0 V
    V(X32.nIPos) = 17.3797 mV
    V(X32.nRVFit) = 1.79998 V
    V(X32.nVCR1) = 739.643 mV
    V(X32.nVCtrl) = 1.79998 V
    V(X32.nVDec) = -7.35733 mV
    V(X32.nVTMR) = 1.8 V
    I(X32.vISample:p) = -1.72304 uA
    V(X33.n50) = -423.342 fV
    V(X33.n51) = 423.334 mV
    V(X33.n60) = 0 V
    V(X33.n61) = 423.334 mV
    V(X33.nBiStable) = 73.6543 mV
    V(X33.nFeedback) = 7.36543 uV
    V(X33.nINeg) = 0 V
    V(X33.nIPos) = 17.3797 mV
    V(X33.nRVFit) = 1.79998 V
    V(X33.nVCR1) = 739.643 mV
    V(X33.nVCtrl) = 1.79998 V
    V(X33.nVDec) = -7.35733 mV
    V(X33.nVTMR) = 1.8 V
    I(X33.vISample:p) = -1.72304 uA
    V(X34.n50) = -423.342 fV
    V(X34.n51) = 423.334 mV
    V(X34.n60) = 0 V
    V(X34.n61) = 423.334 mV
    V(X34.nBiStable) = 73.6543 mV
    V(X34.nFeedback) = 7.36543 uV
    V(X34.nINeg) = 0 V
    V(X34.nIPos) = 17.3797 mV
    V(X34.nRVFit) = 1.79998 V
    V(X34.nVCR1) = 739.643 mV
    V(X34.nVCtrl) = 1.79998 V
    V(X34.nVDec) = -7.35733 mV
    V(X34.nVTMR) = 1.8 V
    I(X34.vISample:p) = -1.72304 uA
    V(X35.n50) = -423.342 fV
    V(X35.n51) = 423.334 mV
    V(X35.n60) = 0 V
    V(X35.n61) = 423.334 mV
    V(X35.nBiStable) = 73.6543 mV
    V(X35.nFeedback) = 7.36543 uV
    V(X35.nINeg) = 0 V
    V(X35.nIPos) = 17.3797 mV
    V(X35.nRVFit) = 1.79998 V
    V(X35.nVCR1) = 739.643 mV
    V(X35.nVCtrl) = 1.79998 V
    V(X35.nVDec) = -7.35733 mV
    V(X35.nVTMR) = 1.8 V
    I(X35.vISample:p) = -1.72304 uA
    V(X36.n50) = -423.342 fV
    V(X36.n51) = 423.334 mV
    V(X36.n60) = 0 V
    V(X36.n61) = 423.334 mV
    V(X36.nBiStable) = 73.6543 mV
    V(X36.nFeedback) = 7.36543 uV
    V(X36.nINeg) = 0 V
    V(X36.nIPos) = 17.3797 mV
    V(X36.nRVFit) = 1.79998 V
    V(X36.nVCR1) = 739.643 mV
    V(X36.nVCtrl) = 1.79998 V
    V(X36.nVDec) = -7.35733 mV
    V(X36.nVTMR) = 1.8 V
    I(X36.vISample:p) = -1.72304 uA
    V(X37.n50) = -423.342 fV
    V(X37.n51) = 423.334 mV
    V(X37.n60) = 0 V
    V(X37.n61) = 423.334 mV
    V(X37.nBiStable) = 73.6543 mV
    V(X37.nFeedback) = 7.36543 uV
    V(X37.nINeg) = 0 V
    V(X37.nIPos) = 17.3797 mV
    V(X37.nRVFit) = 1.79998 V
    V(X37.nVCR1) = 739.643 mV
    V(X37.nVCtrl) = 1.79998 V
    V(X37.nVDec) = -7.35733 mV
    V(X37.nVTMR) = 1.8 V
    I(X37.vISample:p) = -1.72304 uA
    V(X38.n50) = -423.342 fV
    V(X38.n51) = 423.334 mV
    V(X38.n60) = 0 V
    V(X38.n61) = 423.334 mV
    V(X38.nBiStable) = 73.6543 mV
    V(X38.nFeedback) = 7.36543 uV
    V(X38.nINeg) = 0 V
    V(X38.nIPos) = 17.3797 mV
    V(X38.nRVFit) = 1.79998 V
    V(X38.nVCR1) = 739.643 mV
    V(X38.nVCtrl) = 1.79998 V
    V(X38.nVDec) = -7.35733 mV
    V(X38.nVTMR) = 1.8 V
    I(X38.vISample:p) = -1.72304 uA
    V(X39.n50) = -423.342 fV
    V(X39.n51) = 423.334 mV
    V(X39.n60) = 0 V
    V(X39.n61) = 423.334 mV
    V(X39.nBiStable) = 73.6543 mV
    V(X39.nFeedback) = 7.36543 uV
    V(X39.nINeg) = 0 V
    V(X39.nIPos) = 17.3797 mV
    V(X39.nRVFit) = 1.79998 V
    V(X39.nVCR1) = 739.643 mV
    V(X39.nVCtrl) = 1.79998 V
    V(X39.nVDec) = -7.35733 mV
    V(X39.nVTMR) = 1.8 V
    I(X39.vISample:p) = -1.72304 uA
    V(X40.n50) = -423.342 fV
    V(X40.n51) = 423.334 mV
    V(X40.n60) = 0 V
    V(X40.n61) = 423.334 mV
    V(X40.nBiStable) = 73.6543 mV
    V(X40.nFeedback) = 7.36543 uV
    V(X40.nINeg) = 0 V
    V(X40.nIPos) = 17.3797 mV
    V(X40.nRVFit) = 1.79998 V
    V(X40.nVCR1) = 739.643 mV
    V(X40.nVCtrl) = 1.79998 V
    V(X40.nVDec) = -7.35733 mV
    V(X40.nVTMR) = 1.8 V
    I(X40.vISample:p) = -1.72304 uA
    V(X41.n50) = -423.342 fV
    V(X41.n51) = 423.334 mV
    V(X41.n60) = 0 V
    V(X41.n61) = 423.334 mV
    V(X41.nBiStable) = 73.6543 mV
    V(X41.nFeedback) = 7.36543 uV
    V(X41.nINeg) = 0 V
    V(X41.nIPos) = 17.3797 mV
    V(X41.nRVFit) = 1.79998 V
    V(X41.nVCR1) = 739.643 mV
    V(X41.nVCtrl) = 1.79998 V
    V(X41.nVDec) = -7.35733 mV
    V(X41.nVTMR) = 1.8 V
    I(X41.vISample:p) = -1.72304 uA
    V(X42.n50) = -423.342 fV
    V(X42.n51) = 423.334 mV
    V(X42.n60) = 0 V
    V(X42.n61) = 423.334 mV
    V(X42.nBiStable) = 73.6543 mV
    V(X42.nFeedback) = 7.36543 uV
    V(X42.nINeg) = 0 V
    V(X42.nIPos) = 17.3797 mV
    V(X42.nRVFit) = 1.79998 V
    V(X42.nVCR1) = 739.643 mV
    V(X42.nVCtrl) = 1.79998 V
    V(X42.nVDec) = -7.35733 mV
    V(X42.nVTMR) = 1.8 V
    I(X42.vISample:p) = -1.72304 uA
    V(X43.n50) = -423.342 fV
    V(X43.n51) = 423.334 mV
    V(X43.n60) = 0 V
    V(X43.n61) = 423.334 mV
    V(X43.nBiStable) = 73.6543 mV
    V(X43.nFeedback) = 7.36543 uV
    V(X43.nINeg) = 0 V
    V(X43.nIPos) = 17.3797 mV
    V(X43.nRVFit) = 1.79998 V
    V(X43.nVCR1) = 739.643 mV
    V(X43.nVCtrl) = 1.79998 V
    V(X43.nVDec) = -7.35733 mV
    V(X43.nVTMR) = 1.8 V
    I(X43.vISample:p) = -1.72304 uA
    V(X44.n50) = -423.342 fV
    V(X44.n51) = 423.334 mV
    V(X44.n60) = 0 V
    V(X44.n61) = 423.334 mV
    V(X44.nBiStable) = 73.6543 mV
    V(X44.nFeedback) = 7.36543 uV
    V(X44.nINeg) = 0 V
    V(X44.nIPos) = 17.3797 mV
    V(X44.nRVFit) = 1.79998 V
    V(X44.nVCR1) = 739.643 mV
    V(X44.nVCtrl) = 1.79998 V
    V(X44.nVDec) = -7.35733 mV
    V(X44.nVTMR) = 1.8 V
    I(X44.vISample:p) = -1.72304 uA
    V(X45.n50) = -423.342 fV
    V(X45.n51) = 423.334 mV
    V(X45.n60) = 0 V
    V(X45.n61) = 423.334 mV
    V(X45.nBiStable) = 73.6543 mV
    V(X45.nFeedback) = 7.36543 uV
    V(X45.nINeg) = 0 V
    V(X45.nIPos) = 17.3797 mV
    V(X45.nRVFit) = 1.79998 V
    V(X45.nVCR1) = 739.643 mV
    V(X45.nVCtrl) = 1.79998 V
    V(X45.nVDec) = -7.35733 mV
    V(X45.nVTMR) = 1.8 V
    I(X45.vISample:p) = -1.72304 uA
    V(X46.n50) = -423.342 fV
    V(X46.n51) = 423.334 mV
    V(X46.n60) = 0 V
    V(X46.n61) = 423.334 mV
    V(X46.nBiStable) = 73.6543 mV
    V(X46.nFeedback) = 7.36543 uV
    V(X46.nINeg) = 0 V
    V(X46.nIPos) = 17.3797 mV
    V(X46.nRVFit) = 1.79998 V
    V(X46.nVCR1) = 739.643 mV
    V(X46.nVCtrl) = 1.79998 V
    V(X46.nVDec) = -7.35733 mV
    V(X46.nVTMR) = 1.8 V
    I(X46.vISample:p) = -1.72304 uA
    V(X47.n50) = -423.342 fV
    V(X47.n51) = 423.334 mV
    V(X47.n60) = 0 V
    V(X47.n61) = 423.334 mV
    V(X47.nBiStable) = 73.6543 mV
    V(X47.nFeedback) = 7.36543 uV
    V(X47.nINeg) = 0 V
    V(X47.nIPos) = 17.3797 mV
    V(X47.nRVFit) = 1.79998 V
    V(X47.nVCR1) = 739.643 mV
    V(X47.nVCtrl) = 1.79998 V
    V(X47.nVDec) = -7.35733 mV
    V(X47.nVTMR) = 1.8 V
    I(X47.vISample:p) = -1.72304 uA
    V(X48.n50) = -5.76019 pV
    V(X48.n51) = 1.01 V
    V(X48.n60) = 0 V
    V(X48.n61) = 1.01 V
    V(X48.nBiStable) = 2.3067 V
    V(X48.nFeedback) = 230.67 uV
    V(X48.nINeg) = 0 V
    V(X48.nIPos) = 228.135 mV
    V(X48.nRVFit) = 2.30155 V
    V(X48.nVCR1) = 739.643 mV
    V(X48.nVCtrl) = 2.30155 V
    V(X48.nVDec) = -230.416 mV
    V(X48.nVTMR) = 2.3067 V
    I(X48.vISample:p) = -20.5499 uA
    V(X49.n50) = -423.342 fV
    V(X49.n51) = 423.334 mV
    V(X49.n60) = 0 V
    V(X49.n61) = 423.334 mV
    V(X49.nBiStable) = 73.6543 mV
    V(X49.nFeedback) = 7.36543 uV
    V(X49.nINeg) = 0 V
    V(X49.nIPos) = 17.3797 mV
    V(X49.nRVFit) = 1.79998 V
    V(X49.nVCR1) = 739.643 mV
    V(X49.nVCtrl) = 1.79998 V
    V(X49.nVDec) = -7.35733 mV
    V(X49.nVTMR) = 1.8 V
    I(X49.vISample:p) = -1.72304 uA
    V(X50.n50) = -423.342 fV
    V(X50.n51) = 423.334 mV
    V(X50.n60) = 0 V
    V(X50.n61) = 423.334 mV
    V(X50.nBiStable) = 73.6543 mV
    V(X50.nFeedback) = 7.36543 uV
    V(X50.nINeg) = 0 V
    V(X50.nIPos) = 17.3797 mV
    V(X50.nRVFit) = 1.79998 V
    V(X50.nVCR1) = 739.643 mV
    V(X50.nVCtrl) = 1.79998 V
    V(X50.nVDec) = -7.35733 mV
    V(X50.nVTMR) = 1.8 V
    I(X50.vISample:p) = -1.72304 uA
    V(X51.n50) = -423.342 fV
    V(X51.n51) = 423.334 mV
    V(X51.n60) = 0 V
    V(X51.n61) = 423.334 mV
    V(X51.nBiStable) = 73.6543 mV
    V(X51.nFeedback) = 7.36543 uV
    V(X51.nINeg) = 0 V
    V(X51.nIPos) = 17.3797 mV
    V(X51.nRVFit) = 1.79998 V
    V(X51.nVCR1) = 739.643 mV
    V(X51.nVCtrl) = 1.79998 V
    V(X51.nVDec) = -7.35733 mV
    V(X51.nVTMR) = 1.8 V
    I(X51.vISample:p) = -1.72304 uA
    V(X52.n50) = -423.342 fV
    V(X52.n51) = 423.334 mV
    V(X52.n60) = 0 V
    V(X52.n61) = 423.334 mV
    V(X52.nBiStable) = 73.6543 mV
    V(X52.nFeedback) = 7.36543 uV
    V(X52.nINeg) = 0 V
    V(X52.nIPos) = 17.3797 mV
    V(X52.nRVFit) = 1.79998 V
    V(X52.nVCR1) = 739.643 mV
    V(X52.nVCtrl) = 1.79998 V
    V(X52.nVDec) = -7.35733 mV
    V(X52.nVTMR) = 1.8 V
    I(X52.vISample:p) = -1.72304 uA
    V(X53.n50) = -423.342 fV
    V(X53.n51) = 423.334 mV
    V(X53.n60) = 0 V
    V(X53.n61) = 423.334 mV
    V(X53.nBiStable) = 73.6543 mV
    V(X53.nFeedback) = 7.36543 uV
    V(X53.nINeg) = 0 V
    V(X53.nIPos) = 17.3797 mV
    V(X53.nRVFit) = 1.79998 V
    V(X53.nVCR1) = 739.643 mV
    V(X53.nVCtrl) = 1.79998 V
    V(X53.nVDec) = -7.35733 mV
    V(X53.nVTMR) = 1.8 V
    I(X53.vISample:p) = -1.72304 uA
    V(X54.n50) = -423.342 fV
    V(X54.n51) = 423.334 mV
    V(X54.n60) = 0 V
    V(X54.n61) = 423.334 mV
    V(X54.nBiStable) = 73.6543 mV
    V(X54.nFeedback) = 7.36543 uV
    V(X54.nINeg) = 0 V
    V(X54.nIPos) = 17.3797 mV
    V(X54.nRVFit) = 1.79998 V
    V(X54.nVCR1) = 739.643 mV
    V(X54.nVCtrl) = 1.79998 V
    V(X54.nVDec) = -7.35733 mV
    V(X54.nVTMR) = 1.8 V
    I(X54.vISample:p) = -1.72304 uA
    V(X55.n50) = -423.342 fV
    V(X55.n51) = 423.334 mV
    V(X55.n60) = 0 V
    V(X55.n61) = 423.334 mV
    V(X55.nBiStable) = 73.6543 mV
    V(X55.nFeedback) = 7.36543 uV
    V(X55.nINeg) = 0 V
    V(X55.nIPos) = 17.3797 mV
    V(X55.nRVFit) = 1.79998 V
    V(X55.nVCR1) = 739.643 mV
    V(X55.nVCtrl) = 1.79998 V
    V(X55.nVDec) = -7.35733 mV
    V(X55.nVTMR) = 1.8 V
    I(X55.vISample:p) = -1.72304 uA
    V(X56.n50) = -423.342 fV
    V(X56.n51) = 423.334 mV
    V(X56.n60) = 0 V
    V(X56.n61) = 423.334 mV
    V(X56.nBiStable) = 73.6543 mV
    V(X56.nFeedback) = 7.36543 uV
    V(X56.nINeg) = 0 V
    V(X56.nIPos) = 17.3797 mV
    V(X56.nRVFit) = 1.79998 V
    V(X56.nVCR1) = 739.643 mV
    V(X56.nVCtrl) = 1.79998 V
    V(X56.nVDec) = -7.35733 mV
    V(X56.nVTMR) = 1.8 V
    I(X56.vISample:p) = -1.72304 uA
    V(X57.n50) = -423.342 fV
    V(X57.n51) = 423.334 mV
    V(X57.n60) = 0 V
    V(X57.n61) = 423.334 mV
    V(X57.nBiStable) = 73.6543 mV
    V(X57.nFeedback) = 7.36543 uV
    V(X57.nINeg) = 0 V
    V(X57.nIPos) = 17.3797 mV
    V(X57.nRVFit) = 1.79998 V
    V(X57.nVCR1) = 739.643 mV
    V(X57.nVCtrl) = 1.79998 V
    V(X57.nVDec) = -7.35733 mV
    V(X57.nVTMR) = 1.8 V
    I(X57.vISample:p) = -1.72304 uA
    V(X58.n50) = -423.342 fV
    V(X58.n51) = 423.334 mV
    V(X58.n60) = 0 V
    V(X58.n61) = 423.334 mV
    V(X58.nBiStable) = 73.6543 mV
    V(X58.nFeedback) = 7.36543 uV
    V(X58.nINeg) = 0 V
    V(X58.nIPos) = 17.3797 mV
    V(X58.nRVFit) = 1.79998 V
    V(X58.nVCR1) = 739.643 mV
    V(X58.nVCtrl) = 1.79998 V
    V(X58.nVDec) = -7.35733 mV
    V(X58.nVTMR) = 1.8 V
    I(X58.vISample:p) = -1.72304 uA
    V(X59.n50) = -423.342 fV
    V(X59.n51) = 423.334 mV
    V(X59.n60) = 0 V
    V(X59.n61) = 423.334 mV
    V(X59.nBiStable) = 73.6543 mV
    V(X59.nFeedback) = 7.36543 uV
    V(X59.nINeg) = 0 V
    V(X59.nIPos) = 17.3797 mV
    V(X59.nRVFit) = 1.79998 V
    V(X59.nVCR1) = 739.643 mV
    V(X59.nVCtrl) = 1.79998 V
    V(X59.nVDec) = -7.35733 mV
    V(X59.nVTMR) = 1.8 V
    I(X59.vISample:p) = -1.72304 uA
    V(X60.n50) = -423.342 fV
    V(X60.n51) = 423.334 mV
    V(X60.n60) = 0 V
    V(X60.n61) = 423.334 mV
    V(X60.nBiStable) = 73.6543 mV
    V(X60.nFeedback) = 7.36543 uV
    V(X60.nINeg) = 0 V
    V(X60.nIPos) = 17.3797 mV
    V(X60.nRVFit) = 1.79998 V
    V(X60.nVCR1) = 739.643 mV
    V(X60.nVCtrl) = 1.79998 V
    V(X60.nVDec) = -7.35733 mV
    V(X60.nVTMR) = 1.8 V
    I(X60.vISample:p) = -1.72304 uA
    V(X61.n50) = -423.342 fV
    V(X61.n51) = 423.334 mV
    V(X61.n60) = 0 V
    V(X61.n61) = 423.334 mV
    V(X61.nBiStable) = 73.6543 mV
    V(X61.nFeedback) = 7.36543 uV
    V(X61.nINeg) = 0 V
    V(X61.nIPos) = 17.3797 mV
    V(X61.nRVFit) = 1.79998 V
    V(X61.nVCR1) = 739.643 mV
    V(X61.nVCtrl) = 1.79998 V
    V(X61.nVDec) = -7.35733 mV
    V(X61.nVTMR) = 1.8 V
    I(X61.vISample:p) = -1.72304 uA
    V(X62.n50) = -423.342 fV
    V(X62.n51) = 423.334 mV
    V(X62.n60) = 0 V
    V(X62.n61) = 423.334 mV
    V(X62.nBiStable) = 73.6543 mV
    V(X62.nFeedback) = 7.36543 uV
    V(X62.nINeg) = 0 V
    V(X62.nIPos) = 17.3797 mV
    V(X62.nRVFit) = 1.79998 V
    V(X62.nVCR1) = 739.643 mV
    V(X62.nVCtrl) = 1.79998 V
    V(X62.nVDec) = -7.35733 mV
    V(X62.nVTMR) = 1.8 V
    I(X62.vISample:p) = -1.72304 uA
    V(X63.n50) = -423.342 fV
    V(X63.n51) = 423.334 mV
    V(X63.n60) = 0 V
    V(X63.n61) = 423.334 mV
    V(X63.nBiStable) = 73.6543 mV
    V(X63.nFeedback) = 7.36543 uV
    V(X63.nINeg) = 0 V
    V(X63.nIPos) = 17.3797 mV
    V(X63.nRVFit) = 1.79998 V
    V(X63.nVCR1) = 739.643 mV
    V(X63.nVCtrl) = 1.79998 V
    V(X63.nVDec) = -7.35733 mV
    V(X63.nVTMR) = 1.8 V
    I(X63.vISample:p) = -1.72304 uA
    V(X64.n50) = -423.342 fV
    V(X64.n51) = 423.334 mV
    V(X64.n60) = 0 V
    V(X64.n61) = 423.334 mV
    V(X64.nBiStable) = 73.6543 mV
    V(X64.nFeedback) = 7.36543 uV
    V(X64.nINeg) = 0 V
    V(X64.nIPos) = 17.3797 mV
    V(X64.nRVFit) = 1.79998 V
    V(X64.nVCR1) = 739.643 mV
    V(X64.nVCtrl) = 1.79998 V
    V(X64.nVDec) = -7.35733 mV
    V(X64.nVTMR) = 1.8 V
    I(X64.vISample:p) = -1.72304 uA
    V(X65.n50) = -423.342 fV
    V(X65.n51) = 423.334 mV
    V(X65.n60) = 0 V
    V(X65.n61) = 423.334 mV
    V(X65.nBiStable) = 73.6543 mV
    V(X65.nFeedback) = 7.36543 uV
    V(X65.nINeg) = 0 V
    V(X65.nIPos) = 17.3797 mV
    V(X65.nRVFit) = 1.79998 V
    V(X65.nVCR1) = 739.643 mV
    V(X65.nVCtrl) = 1.79998 V
    V(X65.nVDec) = -7.35733 mV
    V(X65.nVTMR) = 1.8 V
    I(X65.vISample:p) = -1.72304 uA
    V(X66.n50) = -423.342 fV
    V(X66.n51) = 423.334 mV
    V(X66.n60) = 0 V
    V(X66.n61) = 423.334 mV
    V(X66.nBiStable) = 73.6543 mV
    V(X66.nFeedback) = 7.36543 uV
    V(X66.nINeg) = 0 V
    V(X66.nIPos) = 17.3797 mV
    V(X66.nRVFit) = 1.79998 V
    V(X66.nVCR1) = 739.643 mV
    V(X66.nVCtrl) = 1.79998 V
    V(X66.nVDec) = -7.35733 mV
    V(X66.nVTMR) = 1.8 V
    I(X66.vISample:p) = -1.72304 uA
    V(X67.n50) = -423.342 fV
    V(X67.n51) = 423.334 mV
    V(X67.n60) = 0 V
    V(X67.n61) = 423.334 mV
    V(X67.nBiStable) = 73.6543 mV
    V(X67.nFeedback) = 7.36543 uV
    V(X67.nINeg) = 0 V
    V(X67.nIPos) = 17.3797 mV
    V(X67.nRVFit) = 1.79998 V
    V(X67.nVCR1) = 739.643 mV
    V(X67.nVCtrl) = 1.79998 V
    V(X67.nVDec) = -7.35733 mV
    V(X67.nVTMR) = 1.8 V
    I(X67.vISample:p) = -1.72304 uA
    V(X68.n50) = -423.342 fV
    V(X68.n51) = 423.334 mV
    V(X68.n60) = 0 V
    V(X68.n61) = 423.334 mV
    V(X68.nBiStable) = 73.6543 mV
    V(X68.nFeedback) = 7.36543 uV
    V(X68.nINeg) = 0 V
    V(X68.nIPos) = 17.3797 mV
    V(X68.nRVFit) = 1.79998 V
    V(X68.nVCR1) = 739.643 mV
    V(X68.nVCtrl) = 1.79998 V
    V(X68.nVDec) = -7.35733 mV
    V(X68.nVTMR) = 1.8 V
    I(X68.vISample:p) = -1.72304 uA
    V(X69.n50) = -423.342 fV
    V(X69.n51) = 423.334 mV
    V(X69.n60) = 0 V
    V(X69.n61) = 423.334 mV
    V(X69.nBiStable) = 73.6543 mV
    V(X69.nFeedback) = 7.36543 uV
    V(X69.nINeg) = 0 V
    V(X69.nIPos) = 17.3797 mV
    V(X69.nRVFit) = 1.79998 V
    V(X69.nVCR1) = 739.643 mV
    V(X69.nVCtrl) = 1.79998 V
    V(X69.nVDec) = -7.35733 mV
    V(X69.nVTMR) = 1.8 V
    I(X69.vISample:p) = -1.72304 uA
    V(X70.n50) = -423.342 fV
    V(X70.n51) = 423.334 mV
    V(X70.n60) = 0 V
    V(X70.n61) = 423.334 mV
    V(X70.nBiStable) = 73.6543 mV
    V(X70.nFeedback) = 7.36543 uV
    V(X70.nINeg) = 0 V
    V(X70.nIPos) = 17.3797 mV
    V(X70.nRVFit) = 1.79998 V
    V(X70.nVCR1) = 739.643 mV
    V(X70.nVCtrl) = 1.79998 V
    V(X70.nVDec) = -7.35733 mV
    V(X70.nVTMR) = 1.8 V
    I(X70.vISample:p) = -1.72304 uA
    V(X71.n50) = -423.342 fV
    V(X71.n51) = 423.334 mV
    V(X71.n60) = 0 V
    V(X71.n61) = 423.334 mV
    V(X71.nBiStable) = 73.6543 mV
    V(X71.nFeedback) = 7.36543 uV
    V(X71.nINeg) = 0 V
    V(X71.nIPos) = 17.3797 mV
    V(X71.nRVFit) = 1.79998 V
    V(X71.nVCR1) = 739.643 mV
    V(X71.nVCtrl) = 1.79998 V
    V(X71.nVDec) = -7.35733 mV
    V(X71.nVTMR) = 1.8 V
    I(X71.vISample:p) = -1.72304 uA
    V(X72.n50) = -423.342 fV
    V(X72.n51) = 423.334 mV
    V(X72.n60) = 0 V
    V(X72.n61) = 423.334 mV
    V(X72.nBiStable) = 73.6543 mV
    V(X72.nFeedback) = 7.36543 uV
    V(X72.nINeg) = 0 V
    V(X72.nIPos) = 17.3797 mV
    V(X72.nRVFit) = 1.79998 V
    V(X72.nVCR1) = 739.643 mV
    V(X72.nVCtrl) = 1.79998 V
    V(X72.nVDec) = -7.35733 mV
    V(X72.nVTMR) = 1.8 V
    I(X72.vISample:p) = -1.72304 uA
    V(X73.n50) = -423.342 fV
    V(X73.n51) = 423.334 mV
    V(X73.n60) = 0 V
    V(X73.n61) = 423.334 mV
    V(X73.nBiStable) = 73.6543 mV
    V(X73.nFeedback) = 7.36543 uV
    V(X73.nINeg) = 0 V
    V(X73.nIPos) = 17.3797 mV
    V(X73.nRVFit) = 1.79998 V
    V(X73.nVCR1) = 739.643 mV
    V(X73.nVCtrl) = 1.79998 V
    V(X73.nVDec) = -7.35733 mV
    V(X73.nVTMR) = 1.8 V
    I(X73.vISample:p) = -1.72304 uA
    V(X74.n50) = -423.342 fV
    V(X74.n51) = 423.334 mV
    V(X74.n60) = 0 V
    V(X74.n61) = 423.334 mV
    V(X74.nBiStable) = 73.6543 mV
    V(X74.nFeedback) = 7.36543 uV
    V(X74.nINeg) = 0 V
    V(X74.nIPos) = 17.3797 mV
    V(X74.nRVFit) = 1.79998 V
    V(X74.nVCR1) = 739.643 mV
    V(X74.nVCtrl) = 1.79998 V
    V(X74.nVDec) = -7.35733 mV
    V(X74.nVTMR) = 1.8 V
    I(X74.vISample:p) = -1.72304 uA
    V(X75.n50) = -423.342 fV
    V(X75.n51) = 423.334 mV
    V(X75.n60) = 0 V
    V(X75.n61) = 423.334 mV
    V(X75.nBiStable) = 73.6543 mV
    V(X75.nFeedback) = 7.36543 uV
    V(X75.nINeg) = 0 V
    V(X75.nIPos) = 17.3797 mV
    V(X75.nRVFit) = 1.79998 V
    V(X75.nVCR1) = 739.643 mV
    V(X75.nVCtrl) = 1.79998 V
    V(X75.nVDec) = -7.35733 mV
    V(X75.nVTMR) = 1.8 V
    I(X75.vISample:p) = -1.72304 uA
    V(X76.n50) = -423.342 fV
    V(X76.n51) = 423.334 mV
    V(X76.n60) = 0 V
    V(X76.n61) = 423.334 mV
    V(X76.nBiStable) = 73.6543 mV
    V(X76.nFeedback) = 7.36543 uV
    V(X76.nINeg) = 0 V
    V(X76.nIPos) = 17.3797 mV
    V(X76.nRVFit) = 1.79998 V
    V(X76.nVCR1) = 739.643 mV
    V(X76.nVCtrl) = 1.79998 V
    V(X76.nVDec) = -7.35733 mV
    V(X76.nVTMR) = 1.8 V
    I(X76.vISample:p) = -1.72304 uA
    V(X77.n50) = -423.342 fV
    V(X77.n51) = 423.334 mV
    V(X77.n60) = 0 V
    V(X77.n61) = 423.334 mV
    V(X77.nBiStable) = 73.6543 mV
    V(X77.nFeedback) = 7.36543 uV
    V(X77.nINeg) = 0 V
    V(X77.nIPos) = 17.3797 mV
    V(X77.nRVFit) = 1.79998 V
    V(X77.nVCR1) = 739.643 mV
    V(X77.nVCtrl) = 1.79998 V
    V(X77.nVDec) = -7.35733 mV
    V(X77.nVTMR) = 1.8 V
    I(X77.vISample:p) = -1.72304 uA
    V(X78.n50) = -423.342 fV
    V(X78.n51) = 423.334 mV
    V(X78.n60) = 0 V
    V(X78.n61) = 423.334 mV
    V(X78.nBiStable) = 73.6543 mV
    V(X78.nFeedback) = 7.36543 uV
    V(X78.nINeg) = 0 V
    V(X78.nIPos) = 17.3797 mV
    V(X78.nRVFit) = 1.79998 V
    V(X78.nVCR1) = 739.643 mV
    V(X78.nVCtrl) = 1.79998 V
    V(X78.nVDec) = -7.35733 mV
    V(X78.nVTMR) = 1.8 V
    I(X78.vISample:p) = -1.72304 uA
    V(X79.n50) = -423.342 fV
    V(X79.n51) = 423.334 mV
    V(X79.n60) = 0 V
    V(X79.n61) = 423.334 mV
    V(X79.nBiStable) = 73.6543 mV
    V(X79.nFeedback) = 7.36543 uV
    V(X79.nINeg) = 0 V
    V(X79.nIPos) = 17.3797 mV
    V(X79.nRVFit) = 1.79998 V
    V(X79.nVCR1) = 739.643 mV
    V(X79.nVCtrl) = 1.79998 V
    V(X79.nVDec) = -7.35733 mV
    V(X79.nVTMR) = 1.8 V
    I(X79.vISample:p) = -1.72304 uA
    V(X80.n50) = -5.76019 pV
    V(X80.n51) = 1.01 V
    V(X80.n60) = 0 V
    V(X80.n61) = 1.01 V
    V(X80.nBiStable) = 2.3067 V
    V(X80.nFeedback) = 230.67 uV
    V(X80.nINeg) = 0 V
    V(X80.nIPos) = 228.135 mV
    V(X80.nRVFit) = 2.30155 V
    V(X80.nVCR1) = 739.643 mV
    V(X80.nVCtrl) = 2.30155 V
    V(X80.nVDec) = -230.416 mV
    V(X80.nVTMR) = 2.3067 V
    I(X80.vISample:p) = -20.5499 uA
    V(X81.n50) = -423.342 fV
    V(X81.n51) = 423.334 mV
    V(X81.n60) = 0 V
    V(X81.n61) = 423.334 mV
    V(X81.nBiStable) = 73.6543 mV
    V(X81.nFeedback) = 7.36543 uV
    V(X81.nINeg) = 0 V
    V(X81.nIPos) = 17.3797 mV
    V(X81.nRVFit) = 1.79998 V
    V(X81.nVCR1) = 739.643 mV
    V(X81.nVCtrl) = 1.79998 V
    V(X81.nVDec) = -7.35733 mV
    V(X81.nVTMR) = 1.8 V
    I(X81.vISample:p) = -1.72304 uA
    V(X82.n50) = -423.342 fV
    V(X82.n51) = 423.334 mV
    V(X82.n60) = 0 V
    V(X82.n61) = 423.334 mV
    V(X82.nBiStable) = 73.6543 mV
    V(X82.nFeedback) = 7.36543 uV
    V(X82.nINeg) = 0 V
    V(X82.nIPos) = 17.3797 mV
    V(X82.nRVFit) = 1.79998 V
    V(X82.nVCR1) = 739.643 mV
    V(X82.nVCtrl) = 1.79998 V
    V(X82.nVDec) = -7.35733 mV
    V(X82.nVTMR) = 1.8 V
    I(X82.vISample:p) = -1.72304 uA
    V(X83.n50) = -423.342 fV
    V(X83.n51) = 423.334 mV
    V(X83.n60) = 0 V
    V(X83.n61) = 423.334 mV
    V(X83.nBiStable) = 73.6543 mV
    V(X83.nFeedback) = 7.36543 uV
    V(X83.nINeg) = 0 V
    V(X83.nIPos) = 17.3797 mV
    V(X83.nRVFit) = 1.79998 V
    V(X83.nVCR1) = 739.643 mV
    V(X83.nVCtrl) = 1.79998 V
    V(X83.nVDec) = -7.35733 mV
    V(X83.nVTMR) = 1.8 V
    I(X83.vISample:p) = -1.72304 uA
    V(X84.n50) = -423.342 fV
    V(X84.n51) = 423.334 mV
    V(X84.n60) = 0 V
    V(X84.n61) = 423.334 mV
    V(X84.nBiStable) = 73.6543 mV
    V(X84.nFeedback) = 7.36543 uV
    V(X84.nINeg) = 0 V
    V(X84.nIPos) = 17.3797 mV
    V(X84.nRVFit) = 1.79998 V
    V(X84.nVCR1) = 739.643 mV
    V(X84.nVCtrl) = 1.79998 V
    V(X84.nVDec) = -7.35733 mV
    V(X84.nVTMR) = 1.8 V
    I(X84.vISample:p) = -1.72304 uA
    V(X85.n50) = -423.342 fV
    V(X85.n51) = 423.334 mV
    V(X85.n60) = 0 V
    V(X85.n61) = 423.334 mV
    V(X85.nBiStable) = 73.6543 mV
    V(X85.nFeedback) = 7.36543 uV
    V(X85.nINeg) = 0 V
    V(X85.nIPos) = 17.3797 mV
[...]
          p : V(NM165) = 739.643 mV
          n : V(X165.nVCR1) = 739.643 mV
          v = 0 V
          i = -1.72304 uA
        pwr = -0 W

Instance: X166.vISample of MTJT
Model: vsource
Primitive: vsource
          p : V(NM166) = 739.643 mV
          n : V(X166.nVCR1) = 739.643 mV
          v = 0 V
          i = -1.72304 uA
        pwr = -0 W

Instance: X167.vISample of MTJT
Model: vsource
Primitive: vsource
          p : V(NM167) = 739.643 mV
          n : V(X167.nVCR1) = 739.643 mV
          v = 0 V
          i = -1.72304 uA
        pwr = -0 W

Instance: X168.vISample of MTJT
Model: vsource
Primitive: vsource
          p : V(NM168) = 739.643 mV
          n : V(X168.nVCR1) = 739.643 mV
          v = 0 V
          i = -1.72304 uA
        pwr = -0 W

Instance: X169.vISample of MTJT
Model: vsource
Primitive: vsource
          p : V(NM169) = 739.643 mV
          n : V(X169.nVCR1) = 739.643 mV
          v = 0 V
          i = -1.72304 uA
        pwr = -0 W

Instance: X170.vISample of MTJT
Model: vsource
Primitive: vsource
          p : V(NM170) = 739.643 mV
          n : V(X170.nVCR1) = 739.643 mV
          v = 0 V
          i = -1.72304 uA
        pwr = -0 W

Instance: X171.vISample of MTJT
Model: vsource
Primitive: vsource
          p : V(NM171) = 739.643 mV
          n : V(X171.nVCR1) = 739.643 mV
          v = 0 V
          i = -1.72304 uA
        pwr = -0 W

Instance: X172.vISample of MTJT
Model: vsource
Primitive: vsource
          p : V(NM172) = 739.643 mV
          n : V(X172.nVCR1) = 739.643 mV
          v = 0 V
          i = -1.72304 uA
        pwr = -0 W

Instance: X173.vISample of MTJT
Model: vsource
Primitive: vsource
          p : V(NM173) = 739.643 mV
          n : V(X173.nVCR1) = 739.643 mV
          v = 0 V
          i = -1.72304 uA
        pwr = -0 W

Instance: X174.vISample of MTJT
Model: vsource
Primitive: vsource
          p : V(NM174) = 739.643 mV
          n : V(X174.nVCR1) = 739.643 mV
          v = 0 V
          i = -1.72304 uA
        pwr = -0 W

Instance: X175.vISample of MTJT
Model: vsource
Primitive: vsource
          p : V(NM175) = 739.643 mV
          n : V(X175.nVCR1) = 739.643 mV
          v = 0 V
          i = -1.72304 uA
        pwr = -0 W

Instance: X176.vISample of MTJT
Model: vsource
Primitive: vsource
          p : V(NM176) = 739.643 mV
          n : V(X176.nVCR1) = 739.643 mV
          v = 0 V
          i = -20.5499 uA
        pwr = -0 W

Instance: X177.vISample of MTJT
Model: vsource
Primitive: vsource
          p : V(NM177) = 739.643 mV
          n : V(X177.nVCR1) = 739.643 mV
          v = 0 V
          i = -1.72304 uA
        pwr = -0 W

Instance: X178.vISample of MTJT
Model: vsource
Primitive: vsource
          p : V(NM178) = 739.643 mV
          n : V(X178.nVCR1) = 739.643 mV
          v = 0 V
          i = -1.72304 uA
        pwr = -0 W

Instance: X179.vISample of MTJT
Model: vsource
Primitive: vsource
          p : V(NM179) = 739.643 mV
          n : V(X179.nVCR1) = 739.643 mV
          v = 0 V
          i = -1.72304 uA
        pwr = -0 W

Instance: X180.vISample of MTJT
Model: vsource
Primitive: vsource
          p : V(NM180) = 739.643 mV
          n : V(X180.nVCR1) = 739.643 mV
          v = 0 V
          i = -1.72304 uA
        pwr = -0 W

Instance: X181.vISample of MTJT
Model: vsource
Primitive: vsource
          p : V(NM181) = 739.643 mV
          n : V(X181.nVCR1) = 739.643 mV
          v = 0 V
          i = -1.72304 uA
        pwr = -0 W

Instance: X182.vISample of MTJT
Model: vsource
Primitive: vsource
          p : V(NM182) = 739.643 mV
          n : V(X182.nVCR1) = 739.643 mV
          v = 0 V
          i = -1.72304 uA
        pwr = -0 W

Instance: X183.vISample of MTJT
Model: vsource
Primitive: vsource
          p : V(NM183) = 739.643 mV
          n : V(X183.nVCR1) = 739.643 mV
          v = 0 V
          i = -1.72304 uA
        pwr = -0 W

Instance: X184.vISample of MTJT
Model: vsource
Primitive: vsource
          p : V(NM184) = 739.643 mV
          n : V(X184.nVCR1) = 739.643 mV
          v = 0 V
          i = -1.72304 uA
        pwr = -0 W

Instance: X185.vISample of MTJT
Model: vsource
Primitive: vsource
          p : V(NM185) = 739.643 mV
          n : V(X185.nVCR1) = 739.643 mV
          v = 0 V
          i = -1.72304 uA
        pwr = -0 W

Instance: X186.vISample of MTJT
Model: vsource
Primitive: vsource
          p : V(NM186) = 739.643 mV
          n : V(X186.nVCR1) = 739.643 mV
          v = 0 V
          i = -1.72304 uA
        pwr = -0 W

Instance: X187.vISample of MTJT
Model: vsource
Primitive: vsource
          p : V(NM187) = 739.643 mV
          n : V(X187.nVCR1) = 739.643 mV
          v = 0 V
          i = -1.72304 uA
        pwr = -0 W

Instance: X188.vISample of MTJT
Model: vsource
Primitive: vsource
          p : V(NM188) = 739.643 mV
          n : V(X188.nVCR1) = 739.643 mV
          v = 0 V
          i = -1.72304 uA
        pwr = -0 W

Instance: X189.vISample of MTJT
Model: vsource
Primitive: vsource
          p : V(NM189) = 739.643 mV
          n : V(X189.nVCR1) = 739.643 mV
          v = 0 V
          i = -1.72304 uA
        pwr = -0 W

Instance: X190.vISample of MTJT
Model: vsource
Primitive: vsource
          p : V(NM190) = 739.643 mV
          n : V(X190.nVCR1) = 739.643 mV
          v = 0 V
          i = -1.72304 uA
        pwr = -0 W

Instance: X191.vISample of MTJT
Model: vsource
Primitive: vsource
          p : V(NM191) = 739.643 mV
          n : V(X191.nVCR1) = 739.643 mV
          v = 0 V
          i = -1.72304 uA
        pwr = -0 W

Instance: X192.vISample of MTJT
Model: vsource
Primitive: vsource
          p : V(NM192) = 739.643 mV
          n : V(X192.nVCR1) = 739.643 mV
          v = 0 V
          i = -1.72304 uA
        pwr = -0 W

Instance: X193.vISample of MTJT
Model: vsource
Primitive: vsource
          p : V(NM193) = 739.643 mV
          n : V(X193.nVCR1) = 739.643 mV
          v = 0 V
          i = -1.72304 uA
        pwr = -0 W

Instance: X194.vISample of MTJT
Model: vsource
Primitive: vsource
          p : V(NM194) = 739.643 mV
          n : V(X194.nVCR1) = 739.643 mV
          v = 0 V
          i = -1.72304 uA
        pwr = -0 W

Instance: X195.vISample of MTJT
Model: vsource
Primitive: vsource
          p : V(NM195) = 739.643 mV
          n : V(X195.nVCR1) = 739.643 mV
          v = 0 V
          i = -1.72304 uA
        pwr = -0 W

Instance: X196.vISample of MTJT
Model: vsource
Primitive: vsource
          p : V(NM196) = 739.643 mV
          n : V(X196.nVCR1) = 739.643 mV
          v = 0 V
          i = -1.72304 uA
        pwr = -0 W

Instance: X197.vISample of MTJT
Model: vsource
Primitive: vsource
          p : V(NM197) = 739.643 mV
          n : V(X197.nVCR1) = 739.643 mV
          v = 0 V
          i = -1.72304 uA
        pwr = -0 W

Instance: X198.vISample of MTJT
Model: vsource
Primitive: vsource
          p : V(NM198) = 739.643 mV
          n : V(X198.nVCR1) = 739.643 mV
          v = 0 V
          i = -1.72304 uA
        pwr = -0 W

Instance: X199.vISample of MTJT
Model: vsource
Primitive: vsource
          p : V(NM199) = 739.643 mV
          n : V(X199.nVCR1) = 739.643 mV
          v = 0 V
          i = -1.72304 uA
        pwr = -0 W

Instance: X200.vISample of MTJT
Model: vsource
Primitive: vsource
          p : V(NM200) = 739.643 mV
          n : V(X200.nVCR1) = 739.643 mV
          v = 0 V
          i = -1.72304 uA
        pwr = -0 W

Instance: X201.vISample of MTJT
Model: vsource
Primitive: vsource
          p : V(NM201) = 739.643 mV
          n : V(X201.nVCR1) = 739.643 mV
          v = 0 V
          i = -1.72304 uA
        pwr = -0 W

Instance: X202.vISample of MTJT
Model: vsource
Primitive: vsource
          p : V(NM202) = 739.643 mV
          n : V(X202.nVCR1) = 739.643 mV
          v = 0 V
          i = -1.72304 uA
        pwr = -0 W

Instance: X203.vISample of MTJT
Model: vsource
Primitive: vsource
          p : V(NM203) = 739.643 mV
          n : V(X203.nVCR1) = 739.643 mV
          v = 0 V
          i = -1.72304 uA
        pwr = -0 W

Instance: X204.vISample of MTJT
Model: vsource
Primitive: vsource
          p : V(NM204) = 739.643 mV
          n : V(X204.nVCR1) = 739.643 mV
          v = 0 V
          i = -1.72304 uA
        pwr = -0 W

Instance: X205.vISample of MTJT
Model: vsource
Primitive: vsource
          p : V(NM205) = 739.643 mV
          n : V(X205.nVCR1) = 739.643 mV
          v = 0 V
          i = -1.72304 uA
        pwr = -0 W

Instance: X206.vISample of MTJT
Model: vsource
Primitive: vsource
          p : V(NM206) = 739.643 mV
          n : V(X206.nVCR1) = 739.643 mV
          v = 0 V
          i = -1.72304 uA
        pwr = -0 W

Instance: X207.vISample of MTJT
Model: vsource
Primitive: vsource
          p : V(NM207) = 739.643 mV
          n : V(X207.nVCR1) = 739.643 mV
          v = 0 V
          i = -1.72304 uA
        pwr = -0 W

Instance: X208.vISample of MTJT
Model: vsource
Primitive: vsource
          p : V(NM208) = 739.643 mV
          n : V(X208.nVCR1) = 739.643 mV
          v = 0 V
          i = -20.5499 uA
        pwr = -0 W

Instance: X209.vISample of MTJT
Model: vsource
Primitive: vsource
          p : V(NM209) = 739.643 mV
          n : V(X209.nVCR1) = 739.643 mV
          v = 0 V
          i = -1.72304 uA
        pwr = -0 W

Instance: X210.vISample of MTJT
Model: vsource
Primitive: vsource
          p : V(NM210) = 739.643 mV
          n : V(X210.nVCR1) = 739.643 mV
          v = 0 V
          i = -1.72304 uA
        pwr = -0 W

Instance: X211.vISample of MTJT
Model: vsource
Primitive: vsource
          p : V(NM211) = 739.643 mV
          n : V(X211.nVCR1) = 739.643 mV
          v = 0 V
          i = -1.72304 uA
        pwr = -0 W

Instance: X212.vISample of MTJT
Model: vsource
Primitive: vsource
          p : V(NM212) = 739.643 mV
          n : V(X212.nVCR1) = 739.643 mV
          v = 0 V
          i = -1.72304 uA
        pwr = -0 W

Instance: X213.vISample of MTJT
Model: vsource
Primitive: vsource
          p : V(NM213) = 739.643 mV
          n : V(X213.nVCR1) = 739.643 mV
          v = 0 V
          i = -1.72304 uA
        pwr = -0 W

Instance: X214.vISample of MTJT
Model: vsource
Primitive: vsource
          p : V(NM214) = 739.643 mV
          n : V(X214.nVCR1) = 739.643 mV
          v = 0 V
          i = -1.72304 uA
        pwr = -0 W

Instance: X215.vISample of MTJT
Model: vsource
Primitive: vsource
          p : V(NM215) = 739.643 mV
          n : V(X215.nVCR1) = 739.643 mV
          v = 0 V
          i = -1.72304 uA
        pwr = -0 W

Instance: X216.vISample of MTJT
Model: vsource
Primitive: vsource
          p : V(NM216) = 739.643 mV
          n : V(X216.nVCR1) = 739.643 mV
          v = 0 V
          i = -1.72304 uA
        pwr = -0 W

Instance: X217.vISample of MTJT
Model: vsource
Primitive: vsource
          p : V(NM217) = 739.643 mV
          n : V(X217.nVCR1) = 739.643 mV
          v = 0 V
          i = -1.72304 uA
        pwr = -0 W

Instance: X218.vISample of MTJT
Model: vsource
Primitive: vsource
          p : V(NM218) = 739.643 mV
          n : V(X218.nVCR1) = 739.643 mV
          v = 0 V
          i = -1.72304 uA
        pwr = -0 W

Instance: X219.vISample of MTJT
Model: vsource
Primitive: vsource
          p : V(NM219) = 739.643 mV
          n : V(X219.nVCR1) = 739.643 mV
          v = 0 V
          i = -1.72304 uA
        pwr = -0 W

Instance: X220.vISample of MTJT
Model: vsource
Primitive: vsource
          p : V(NM220) = 739.643 mV
          n : V(X220.nVCR1) = 739.643 mV
          v = 0 V
          i = -1.72304 uA
        pwr = -0 W

Instance: X221.vISample of MTJT
Model: vsource
Primitive: vsource
          p : V(NM221) = 739.643 mV
          n : V(X221.nVCR1) = 739.643 mV
          v = 0 V
          i = -1.72304 uA
        pwr = -0 W

Instance: X222.vISample of MTJT
Model: vsource
Primitive: vsource
          p : V(NM222) = 739.643 mV
          n : V(X222.nVCR1) = 739.643 mV
          v = 0 V
          i = -1.72304 uA
        pwr = -0 W

Instance: X223.vISample of MTJT
Model: vsource
Primitive: vsource
          p : V(NM223) = 739.643 mV
          n : V(X223.nVCR1) = 739.643 mV
          v = 0 V
          i = -1.72304 uA
        pwr = -0 W

Instance: X224.vISample of MTJT
Model: vsource
Primitive: vsource
          p : V(NM224) = 739.643 mV
          n : V(X224.nVCR1) = 739.643 mV
          v = 0 V
          i = -1.72304 uA
        pwr = -0 W

Instance: X225.vISample of MTJT
Model: vsource
Primitive: vsource
          p : V(NM225) = 739.643 mV
          n : V(X225.nVCR1) = 739.643 mV
          v = 0 V
          i = -1.72304 uA
        pwr = -0 W

Instance: X226.vISample of MTJT
Model: vsource
Primitive: vsource
          p : V(NM226) = 739.643 mV
          n : V(X226.nVCR1) = 739.643 mV
          v = 0 V
          i = -1.72304 uA
        pwr = -0 W

Instance: X227.vISample of MTJT
Model: vsource
Primitive: vsource
          p : V(NM227) = 739.643 mV
          n : V(X227.nVCR1) = 739.643 mV
          v = 0 V
          i = -1.72304 uA
        pwr = -0 W

Instance: X228.vISample of MTJT
Model: vsource
Primitive: vsource
          p : V(NM228) = 739.643 mV
          n : V(X228.nVCR1) = 739.643 mV
          v = 0 V
          i = -1.72304 uA
        pwr = -0 W

Instance: X229.vISample of MTJT
Model: vsource
Primitive: vsource
          p : V(NM229) = 739.643 mV
          n : V(X229.nVCR1) = 739.643 mV
          v = 0 V
          i = -1.72304 uA
        pwr = -0 W

Instance: X230.vISample of MTJT
Model: vsource
Primitive: vsource
          p : V(NM230) = 739.643 mV
          n : V(X230.nVCR1) = 739.643 mV
          v = 0 V
          i = -1.72304 uA
        pwr = -0 W

Instance: X231.vISample of MTJT
Model: vsource
Primitive: vsource
          p : V(NM231) = 739.643 mV
          n : V(X231.nVCR1) = 739.643 mV
          v = 0 V
          i = -1.72304 uA
        pwr = -0 W

Instance: X232.vISample of MTJT
Model: vsource
Primitive: vsource
          p : V(NM232) = 739.643 mV
          n : V(X232.nVCR1) = 739.643 mV
          v = 0 V
          i = -1.72304 uA
        pwr = -0 W

Instance: X233.vISample of MTJT
Model: vsource
Primitive: vsource
          p : V(NM233) = 739.643 mV
          n : V(X233.nVCR1) = 739.643 mV
          v = 0 V
          i = -1.72304 uA
        pwr = -0 W

Instance: X234.vISample of MTJT
Model: vsource
Primitive: vsource
          p : V(NM234) = 739.643 mV
          n : V(X234.nVCR1) = 739.643 mV
          v = 0 V
          i = -1.72304 uA
        pwr = -0 W

Instance: X235.vISample of MTJT
Model: vsource
Primitive: vsource
          p : V(NM235) = 739.643 mV
          n : V(X235.nVCR1) = 739.643 mV
          v = 0 V
          i = -1.72304 uA
        pwr = -0 W

Instance: X236.vISample of MTJT
Model: vsource
Primitive: vsource
          p : V(NM236) = 739.643 mV
          n : V(X236.nVCR1) = 739.643 mV
          v = 0 V
          i = -1.72304 uA
        pwr = -0 W

Instance: X237.vISample of MTJT
Model: vsource
Primitive: vsource
          p : V(NM237) = 739.643 mV
          n : V(X237.nVCR1) = 739.643 mV
          v = 0 V
          i = -1.72304 uA
        pwr = -0 W

Instance: X238.vISample of MTJT
Model: vsource
Primitive: vsource
          p : V(NM238) = 739.643 mV
          n : V(X238.nVCR1) = 739.643 mV
          v = 0 V
          i = -1.72304 uA
        pwr = -0 W

Instance: X239.vISample of MTJT
Model: vsource
Primitive: vsource
          p : V(NM239) = 739.643 mV
          n : V(X239.nVCR1) = 739.643 mV
          v = 0 V
          i = -1.72304 uA
        pwr = -0 W

Instance: X240.vISample of MTJT
Model: vsource
Primitive: vsource
          p : V(NM240) = 739.643 mV
          n : V(X240.nVCR1) = 739.643 mV
          v = 0 V
          i = -20.5499 uA
        pwr = -0 W

Instance: X241.vISample of MTJT
Model: vsource
Primitive: vsource
          p : V(NM241) = 739.643 mV
          n : V(X241.nVCR1) = 739.643 mV
          v = 0 V
          i = -1.72304 uA
        pwr = -0 W

Instance: X242.vISample of MTJT
Model: vsource
Primitive: vsource
          p : V(NM242) = 739.643 mV
          n : V(X242.nVCR1) = 739.643 mV
          v = 0 V
          i = -1.72304 uA
        pwr = -0 W

Instance: X243.vISample of MTJT
Model: vsource
Primitive: vsource
          p : V(NM243) = 739.643 mV
          n : V(X243.nVCR1) = 739.643 mV
          v = 0 V
          i = -1.72304 uA
        pwr = -0 W

Instance: X244.vISample of MTJT
Model: vsource
Primitive: vsource
          p : V(NM244) = 739.643 mV
          n : V(X244.nVCR1) = 739.643 mV
          v = 0 V
          i = -1.72304 uA
        pwr = -0 W

Instance: X245.vISample of MTJT
Model: vsource
Primitive: vsource
          p : V(NM245) = 739.643 mV
          n : V(X245.nVCR1) = 739.643 mV
          v = 0 V
          i = -1.72304 uA
        pwr = -0 W

Instance: X246.vISample of MTJT
Model: vsource
Primitive: vsource
          p : V(NM246) = 739.643 mV
          n : V(X246.nVCR1) = 739.643 mV
          v = 0 V
          i = -1.72304 uA
        pwr = -0 W

Instance: X247.vISample of MTJT
Model: vsource
Primitive: vsource
          p : V(NM247) = 739.643 mV
          n : V(X247.nVCR1) = 739.643 mV
          v = 0 V
          i = -1.72304 uA
        pwr = -0 W

Instance: X248.vISample of MTJT
Model: vsource
Primitive: vsource
          p : V(NM248) = 739.643 mV
          n : V(X248.nVCR1) = 739.643 mV
          v = 0 V
          i = -1.72304 uA
        pwr = -0 W

Instance: X249.vISample of MTJT
Model: vsource
Primitive: vsource
          p : V(NM249) = 739.643 mV
          n : V(X249.nVCR1) = 739.643 mV
          v = 0 V
          i = -1.72304 uA
        pwr = -0 W

Instance: X250.vISample of MTJT
Model: vsource
Primitive: vsource
          p : V(NM250) = 739.643 mV
          n : V(X250.nVCR1) = 739.643 mV
          v = 0 V
          i = -1.72304 uA
        pwr = -0 W

Instance: X251.vISample of MTJT
Model: vsource
Primitive: vsource
          p : V(NM251) = 739.643 mV
          n : V(X251.nVCR1) = 739.643 mV
          v = 0 V
          i = -1.72304 uA
        pwr = -0 W

Instance: X252.vISample of MTJT
Model: vsource
Primitive: vsource
          p : V(NM252) = 739.643 mV
          n : V(X252.nVCR1) = 739.643 mV
          v = 0 V
          i = -1.72304 uA
        pwr = -0 W

Instance: X253.vISample of MTJT
Model: vsource
Primitive: vsource
          p : V(NM253) = 739.643 mV
          n : V(X253.nVCR1) = 739.643 mV
          v = 0 V
          i = -1.72304 uA
        pwr = -0 W

Instance: X254.vISample of MTJT
Model: vsource
Primitive: vsource
          p : V(NM254) = 739.643 mV
          n : V(X254.nVCR1) = 739.643 mV
          v = 0 V
          i = -1.72304 uA
        pwr = -0 W

Instance: X255.vISample of MTJT
Model: vsource
Primitive: vsource
          p : V(NM255) = 739.643 mV
          n : V(X255.nVCR1) = 739.643 mV
          v = 0 V
          i = -1.72304 uA
        pwr = -0 W

Instance: X256.vISample of MTJT
Model: vsource
Primitive: vsource
          p : V(NM256) = 739.643 mV
          n : V(X256.nVCR1) = 739.643 mV
          v = 0 V
          i = -1.72304 uA
        pwr = -0 W

Maximum and minimum parameter values for vsource: 
            max v = 1.6 V on Vbl4en
            min v = 0 V on Vbl1en
            max i = 12.0613 uA on Vtest119
            min i = -437.846 uA on Vbl4
          min |i| = -114.511 fA on Vwl24
          max pwr = 0 W on Vbl1en
          min pwr = -350.277 uW on Vbl4


Total Power Dissipation = 486.861 uW.


Convergence achieved in 8 iterations.
DC simulation time: CPU = 916.979 ms, elapsed = 941.342 ms.
Total time required for dc analysis `LeakStat': CPU = 917.27 ms, elapsed = 941.635 ms.
Time accumulated: CPU = 32.4781 s, elapsed = 32.904 s.
Peak resident memory used = 121 Mbytes.


Aggregate audit (8:22:06 AM, Mon Mar 29, 2021):
Time used: CPU = 32.5 s, elapsed = 33 s, util. = 98.6%.
Time spent in licensing: elapsed = 28.2 ms.
Peak memory used = 121 Mbytes.
Simulation started at: 8:21:33 AM, Mon Mar 29, 2021, ended at: 8:22:06 AM, Mon Mar 29, 2021, with elapsed time (wall clock): 33 s.
spectre completes with 0 errors, 3 warnings, and 51 notices.
