
Spectre (R) Circuit Simulator
Version 16.1.0.673.isr14 64bit -- 30 Mar 2018
Copyright (C) 1989-2018 Cadence Design Systems, Inc. All rights reserved worldwide. Cadence and Spectre are registered trademarks of Cadence Design Systems, Inc. All others are the property of their respective holders.

Includes RSA BSAFE(R) Cryptographic or Security Protocol Software from RSA Security, Inc.

User: brunozimmer   Host: itacolomi.lapsi   HostID: 7F0100   PID: 4882
Memory  available: 20.1187 GB  physical: 33.7036 GB
Linux   : CentOS Linux release 7.9.2009 (Core)
CPU Type: Intel(R) Xeon(R) CPU E3-1220 V2 @ 3.10GHz
        Socket: Processors [Frequency]
        0:       0 [2341.8],  1 [2340.7],  2 [2326.9],  3 [2397.1]
        
System load averages (1min, 5min, 15min) : 2.0 %, 5.8 %, 7.0 %


Simulating `Cell.scs' on itacolomi.lapsi at 3:53:58 PM, Fri Feb 26, 2021 (process id: 4882).
Current working directory: /home/brunozimmer/Documentos/ComparacaoMemorias/1T1MTJ
Command line:
    /tools/cadence/SPECTRE161/tools/bin/spectre -64 Cell.scs

Loading /tools/cadence/SPECTRE161/tools.lnx86/cmi/lib/64bit/5.0/libinfineon_sh.so ...
Loading /tools/cadence/SPECTRE161/tools.lnx86/cmi/lib/64bit/5.0/libphilips_o_sh.so ...
Loading /tools/cadence/SPECTRE161/tools.lnx86/cmi/lib/64bit/5.0/libphilips_sh.so ...
Loading /tools/cadence/SPECTRE161/tools.lnx86/cmi/lib/64bit/5.0/libsparam_sh.so ...
Loading /tools/cadence/SPECTRE161/tools.lnx86/cmi/lib/64bit/5.0/libstmodels_sh.so ...

Error found by spectre.
    ERROR (CMI-2011): Unable to open input file `Cell.scs'.
        No such file or directory.

Time for parsing: CPU = 93.809 ms, elapsed = 139.523 ms.
Time accumulated: CPU = 120.67 ms, elapsed = 139.532 ms.
Peak resident memory used = 43.3 Mbytes.

~~~~~~~~~~~~~~~~~~~~~~
Pre-Simulation Summary
~~~~~~~~~~~~~~~~~~~~~~
~~~~~~~~~~~~~~~~~~~~~~

Aggregate audit (3:53:58 PM, Fri Feb 26, 2021):
Time used: CPU = 123 ms, elapsed = 141 ms, util. = 86.6%.
Time spent in licensing: elapsed = 35.4 ms, percentage of total = 25.1%.
Peak memory used = 44.6 Mbytes.
Simulation started at: 3:53:58 PM, Fri Feb 26, 2021, ended at: 3:53:58 PM, Fri Feb 26, 2021, with elapsed time (wall clock): 141 ms.
spectre completes with 1 error, 0 warnings, and 0 notices.
spectre terminated prematurely due to fatal error.
