
Spectre (R) Circuit Simulator
Version 16.1.0.673.isr14 64bit -- 30 Mar 2018
Copyright (C) 1989-2018 Cadence Design Systems, Inc. All rights reserved worldwide. Cadence and Spectre are registered trademarks of Cadence Design Systems, Inc. All others are the property of their respective holders.

Includes RSA BSAFE(R) Cryptographic or Security Protocol Software from RSA Security, Inc.

User: brunozimmer   Host: itacolomi.lapsi   HostID: 7F0100   PID: 14885
Memory  available: 16.6359 GB  physical: 33.7036 GB
Linux   : CentOS Linux release 7.9.2009 (Core)
CPU Type: Intel(R) Xeon(R) CPU E3-1220 V2 @ 3.10GHz
        Socket: Processors [Frequency]
        0:       0 [2730.9],  1 [2696.2],  2 [2711.0],  3 [2692.8]
        
System load averages (1min, 5min, 15min) : 8.2 %, 4.5 %, 5.5 %


Simulating `Cell.scs' on itacolomi.lapsi at 9:06:36 PM, Thur Mar 18, 2021 (process id: 14885).
Current working directory: /home/brunozimmer/Documentos/ComparacaoMemorias/1MTJ_HF/64
Command line:
    /tools/cadence/SPECTRE161/tools.lnx86/bin/spectre -64 =mdl  \
        Result.mdl Cell.scs

Loading /tools/cadence/SPECTRE161/tools.lnx86/cmi/lib/64bit/5.0/libinfineon_sh.so ...
Loading /tools/cadence/SPECTRE161/tools.lnx86/cmi/lib/64bit/5.0/libphilips_o_sh.so ...
Loading /tools/cadence/SPECTRE161/tools.lnx86/cmi/lib/64bit/5.0/libphilips_sh.so ...
Loading /tools/cadence/SPECTRE161/tools.lnx86/cmi/lib/64bit/5.0/libsparam_sh.so ...
Loading /tools/cadence/SPECTRE161/tools.lnx86/cmi/lib/64bit/5.0/libstmodels_sh.so ...
Loading /tools/cadence/SPECTRE161/tools.lnx86/spectre/lib/64bit/mdl/libSpectreEH_sh.so ...

Warning from spectre.
    WARNING (MDL-1452): line 1, column 1: syntax error before or at: *
            unrecognised statement.

Reading file:  /home/brunozimmer/Documentos/ComparacaoMemorias/1MTJ_HF/64/Cell.scs
Reading file:  /tools/cadence/SPECTRE161/tools.lnx86/spectre/etc/configs/mapsubckt.cfg
Reading file:  /tools/cadence/SPECTRE161/tools.lnx86/spectre/etc/configs/spectre.cfg
Reading file:  /home/brunozimmer/Documentos/ComparacaoMemorias/1MTJ_HF/64/45nm_LP.pm
Reading file:  /home/brunozimmer/Documentos/ComparacaoMemorias/1MTJ_HF/64/MTJT.spi
Time for NDB Parsing: CPU = 190.918 ms, elapsed = 213.433 ms.
Time accumulated: CPU = 213.448 ms, elapsed = 213.443 ms.
Peak resident memory used = 65.1 Mbytes.

Reading link:  /tools/cadence/SPECTRE161/tools.lnx86/spectre/etc/ahdl/discipline.h
Reading file:  /tools/cadence/SPECTRE161/tools.lnx86/spectre/etc/ahdl/disciplines.vams
Reading link:  /tools/cadence/SPECTRE161/tools.lnx86/spectre/etc/ahdl/constants.h
Reading file:  /tools/cadence/SPECTRE161/tools.lnx86/spectre/etc/ahdl/constants.vams
Existing shared object for module bsource_299dda is up to date.
Installed compiled interface for bsource_299dda.
Existing shared object for module bsource_c88c6a is up to date.
Installed compiled interface for bsource_c88c6a.
Existing shared object for module bsource_42ea24 is up to date.
Installed compiled interface for bsource_42ea24.
Existing shared object for module bsource_7b7e87 is up to date.
Installed compiled interface for bsource_7b7e87.
Existing shared object for module bsource_098211 is up to date.
Installed compiled interface for bsource_098211.
Existing shared object for module bsource_ad0f4a is up to date.
Installed compiled interface for bsource_ad0f4a.
Time for Elaboration: CPU = 31.665 ms, elapsed = 31.7581 ms.
Time accumulated: CPU = 245.291 ms, elapsed = 245.404 ms.
Peak resident memory used = 74.2 Mbytes.


Time for EDB Visiting: CPU = 22.656 ms, elapsed = 22.6638 ms.
Time accumulated: CPU = 268.084 ms, elapsed = 268.217 ms.
Peak resident memory used = 76.2 Mbytes.


Notice from spectre during topology check.
    Only one connection to node `Vdd'.


Global user options:
             rawfmt = psfbin
               cmin = 5e-15

Scoped user options:

Circuit inventory:
              nodes 913
     bsource_7b7e87 64    
     bsource_42ea24 64    
     bsource_299dda 64    
     bsource_098211 64    
     bsource_ad0f4a 64    
     bsource_c88c6a 64    
          capacitor 400   
           resistor 456   
               vccs 64    
               vcvs 256   
            vsource 145   

Analysis and control statement inventory:
               tran 1     

Output statements:
             .probe 0     
           .measure 0     
               save 0     

Time for parsing: CPU = 8.062 ms, elapsed = 110.681 ms.
Time accumulated: CPU = 276.278 ms, elapsed = 379.047 ms.
Peak resident memory used = 78.5 Mbytes.

~~~~~~~~~~~~~~~~~~~~~~
Pre-Simulation Summary
~~~~~~~~~~~~~~~~~~~~~~
~~~~~~~~~~~~~~~~~~~~~~

+++++++++++++++
TpRead = (1.5n)
+++++++++++++++

**************************************************************
Transient Analysis `TmpRead-000_TmpRead': time = (0 s -> 5 ns)
**************************************************************
DC simulation time: CPU = 21.915 ms, elapsed = 21.9231 ms.

Notice from spectre during transient analysis `TmpRead-000_TmpRead', during task `MDLControl'.
    No outputs were found. Loosening output filter criterion to `allpub'.


Opening the PSF file Cell.raw/TmpRead-000_TmpRead.tran.tran ...
Important parameter values:
    start = 0 s
    outputstart = 0 s
    stop = 5 ns
    step = 5 ps
    maxstep = 100 ps
    ic = all
    useprevic = no
    skipdc = no
    reltol = 1e-03
    abstol(V) = 1 uV
    abstol(I) = 1 pA
    temp = 27 C
    tnom = 27 C
    tempeffects = all
    errpreset = moderate
    method = traponly
    lteratio = 3.5
    relref = sigglobal
    cmin = 5 fF
    gmin = 1 pS


Output and IC/nodeset summary:
                 save   145     (current)
                 save   913     (voltage)

Zero diagonal found in Jacobian at `X54.eISensBin1:bs_p1_bs_p2_flow' and `X54.vISample:p'.
.........9......

Notice from spectre at time = 815.177 ps during transient analysis `TmpRead-000_TmpRead', during task `MDLControl'.
    Found trapezoidal ringing on node X28.elim2:p.

.........9.......

Notice from spectre at time = 850.564 ps during transient analysis `TmpRead-000_TmpRead', during task `MDLControl'.
    Found trapezoidal ringing on node X28.eVTMR:p.
Notice from spectre at time = 858.574 ps during transient analysis `TmpRead-000_TmpRead', during task `MDLControl'.
    Found trapezoidal ringing on node X28.eBiStable:p.
Notice from spectre at time = 867.876 ps during transient analysis `TmpRead-000_TmpRead', during task `MDLControl'.
    Found trapezoidal ringing on node X28.eVTMR:p.
Notice from spectre at time = 878.368 ps during transient analysis `TmpRead-000_TmpRead', during task `MDLControl'.
    Found trapezoidal ringing on node X28.eBiStable:p.
        Further occurrences of this notice will be suppressed.

.........9.........8.........7.........6.........5.........4.........3.........2.........1.........0
Number of accepted tran steps =             562

Notice from spectre during transient analysis `TmpRead-000_TmpRead', during task `MDLControl'.
    Trapezoidal ringing is detected during tran analysis.
        Please use method=trap for better results and performance.


Maximum value achieved for any signal of each quantity: 
V: V(X64.nBiStable) = 10 V
I: I(X28.eMux3:bs_p1_bs_p2_flow) = 77.52 A
If your circuit contains signals of the same quantity that are vastly different in size (such as high voltage circuitry combined with low voltage control circuitry), you should consider specifying global option `bin_relref=yes'.

~~~~~~~~~~~~~~~~~~~~~~~~~~~~~~~~~
Post-Transient Simulation Summary
~~~~~~~~~~~~~~~~~~~~~~~~~~~~~~~~~
   -   Parasitics slow down simulation. To speed up, consider
          add +postlayout on command line
   -   To further speed up simulation, consider
          add ++aps on command line
~~~~~~~~~~~~~~~~~~~~~~~~~~~~~~~~~


During simulation, the CPU load for active processors is :
        Spectre  0 (12.9 %)      1 (6.9 %)       2 (80.2 %)      3 (4.0 %)
        Other   
Initial condition solution time: CPU = 22.053 ms, elapsed = 22.074 ms.
Intrinsic tran analysis time:    CPU = 533.866 ms, elapsed = 565.711 ms.
Total time required for tran analysis `TmpRead-000_TmpRead': CPU = 567.071 ms, elapsed = 599.136 ms.
Time accumulated: CPU = 882.004 ms, elapsed = 1.06978 s.
Peak resident memory used = 85.6 Mbytes.


Notice from spectre during task `MDLControl'.
    127 notices suppressed.


Value of Exported Variables in this iteration of the Search loop ( iteration = 1 ) :
CurBL=0.000842877
TpRd=2e-10

++++++++++++++++
TpRead = (1.71n)
++++++++++++++++

**************************************************************
Transient Analysis `TmpRead-000_TmpRead': time = (0 s -> 5 ns)
**************************************************************
DC simulation time: CPU = 12.527 ms, elapsed = 12.5289 ms.

Notice from spectre during transient analysis `TmpRead-000_TmpRead', during task `MDLControl'.
    No outputs were found. Loosening output filter criterion to `allpub'.


Opening the PSF file Cell.raw/TmpRead-000_TmpRead.tran.tran ...
Important parameter values:
    start = 0 s
    outputstart = 0 s
    stop = 5 ns
    step = 5 ps
    maxstep = 100 ps
    ic = all
    useprevic = no
    skipdc = no
    reltol = 1e-03
    abstol(V) = 1 uV
    abstol(I) = 1 pA
    temp = 27 C
    tnom = 27 C
    tempeffects = all
    errpreset = moderate
    method = traponly
    lteratio = 3.5
    relref = sigglobal
    cmin = 5 fF
    gmin = 1 pS


Output and IC/nodeset summary:
                 save   145     (current)
                 save   913     (voltage)

.........9......

Notice from spectre at time = 815.177 ps during transient analysis `TmpRead-000_TmpRead', during task `MDLControl'.
    Found trapezoidal ringing on node X28.elim2:p.

.........9.......

Notice from spectre at time = 850.564 ps during transient analysis `TmpRead-000_TmpRead', during task `MDLControl'.
    Found trapezoidal ringing on node X28.eVTMR:p.
Notice from spectre at time = 858.574 ps during transient analysis `TmpRead-000_TmpRead', during task `MDLControl'.
    Found trapezoidal ringing on node X28.eBiStable:p.
Notice from spectre at time = 867.876 ps during transient analysis `TmpRead-000_TmpRead', during task `MDLControl'.
    Found trapezoidal ringing on node X28.eVTMR:p.
Notice from spectre at time = 878.368 ps during transient analysis `TmpRead-000_TmpRead', during task `MDLControl'.
    Found trapezoidal ringing on node X28.eBiStable:p.
        Further occurrences of this notice will be suppressed.

.........9.........8.........7.........6.........5.........4.........3.........2.........1.........0
Number of accepted tran steps =             611

Notice from spectre during transient analysis `TmpRead-000_TmpRead', during task `MDLControl'.
    Trapezoidal ringing is detected during tran analysis.
        Please use method=trap for better results and performance.


Maximum value achieved for any signal of each quantity: 
V: V(X64.nBiStable) = 10 V
I: I(X28.eMux3:bs_p1_bs_p2_flow) = 310.1 A
If your circuit contains signals of the same quantity that are vastly different in size (such as high voltage circuitry combined with low voltage control circuitry), you should consider specifying global option `bin_relref=yes'.

~~~~~~~~~~~~~~~~~~~~~~~~~~~~~~~~~
Post-Transient Simulation Summary
~~~~~~~~~~~~~~~~~~~~~~~~~~~~~~~~~
   -   Parasitics slow down simulation. To speed up, consider
          add +postlayout on command line
   -   To further speed up simulation, consider
          add ++aps on command line
~~~~~~~~~~~~~~~~~~~~~~~~~~~~~~~~~


During simulation, the CPU load for active processors is :
        Spectre  0 (11.0 %)      1 (6.1 %)       2 (86.5 %)      3 (3.0 %)
        Other   
Initial condition solution time: CPU = 12.61 ms, elapsed = 12.6219 ms.
Intrinsic tran analysis time:    CPU = 556.139 ms, elapsed = 581.252 ms.
Total time required for tran analysis `TmpRead-000_TmpRead': CPU = 574.084 ms, elapsed = 599.325 ms.
Time accumulated: CPU = 1.47934 s, elapsed = 1.69242 s.
Peak resident memory used = 87.6 Mbytes.


Notice from spectre during task `MDLControl'.
    166 notices suppressed.


Value of Exported Variables in this iteration of the Search loop ( iteration = 2 ) :
CurBL=1.77607e-15
TpRd=-1e-11

++++++++++++++++++
TpRead = 1.605e-09
++++++++++++++++++

**************************************************************
Transient Analysis `TmpRead-000_TmpRead': time = (0 s -> 5 ns)
**************************************************************
DC simulation time: CPU = 11.889 ms, elapsed = 11.889 ms.

Notice from spectre during transient analysis `TmpRead-000_TmpRead', during task `MDLControl'.
    No outputs were found. Loosening output filter criterion to `allpub'.


Opening the PSF file Cell.raw/TmpRead-000_TmpRead.tran.tran ...
Important parameter values:
    start = 0 s
    outputstart = 0 s
    stop = 5 ns
    step = 5 ps
    maxstep = 100 ps
    ic = all
    useprevic = no
    skipdc = no
    reltol = 1e-03
    abstol(V) = 1 uV
    abstol(I) = 1 pA
    temp = 27 C
    tnom = 27 C
    tempeffects = all
    errpreset = moderate
    method = traponly
    lteratio = 3.5
    relref = sigglobal
    cmin = 5 fF
    gmin = 1 pS


Output and IC/nodeset summary:
                 save   145     (current)
                 save   913     (voltage)

Zero diagonal found in Jacobian at `X37.eISensBin1:bs_p1_bs_p2_flow' and `X37.vISample:p'.
Zero diagonal found in Jacobian at `X49.eISensBin2:bs_p1_bs_p2_flow' and `X49.vISample:p'.
.........9......

Notice from spectre at time = 815.177 ps during transient analysis `TmpRead-000_TmpRead', during task `MDLControl'.
    Found trapezoidal ringing on node X28.elim2:p.

.........9.......

Notice from spectre at time = 850.564 ps during transient analysis `TmpRead-000_TmpRead', during task `MDLControl'.
    Found trapezoidal ringing on node X28.eVTMR:p.
Notice from spectre at time = 858.574 ps during transient analysis `TmpRead-000_TmpRead', during task `MDLControl'.
    Found trapezoidal ringing on node X28.eBiStable:p.
Notice from spectre at time = 867.876 ps during transient analysis `TmpRead-000_TmpRead', during task `MDLControl'.
    Found trapezoidal ringing on node X28.eVTMR:p.
Notice from spectre at time = 878.368 ps during transient analysis `TmpRead-000_TmpRead', during task `MDLControl'.
    Found trapezoidal ringing on node X28.eBiStable:p.
        Further occurrences of this notice will be suppressed.

.........9.........8.........7.........6.........5.........4.........3.........2.........1.........0
Number of accepted tran steps =             593

Notice from spectre during transient analysis `TmpRead-000_TmpRead', during task `MDLControl'.
    Trapezoidal ringing is detected during tran analysis.
        Please use method=trap for better results and performance.


Maximum value achieved for any signal of each quantity: 
V: V(X64.nBiStable) = 10 V
I: I(X28.eMux3:bs_p1_bs_p2_flow) = 310.1 A
If your circuit contains signals of the same quantity that are vastly different in size (such as high voltage circuitry combined with low voltage control circuitry), you should consider specifying global option `bin_relref=yes'.

~~~~~~~~~~~~~~~~~~~~~~~~~~~~~~~~~
Post-Transient Simulation Summary
~~~~~~~~~~~~~~~~~~~~~~~~~~~~~~~~~
   -   Parasitics slow down simulation. To speed up, consider
          add +postlayout on command line
   -   To further speed up simulation, consider
          add ++aps on command line
~~~~~~~~~~~~~~~~~~~~~~~~~~~~~~~~~


During simulation, the CPU load for active processors is :
        Spectre  0 (11.2 %)      1 (5.4 %)       2 (88.8 %)      3 (2.7 %)
        Other   
Initial condition solution time: CPU = 11.94 ms, elapsed = 11.9481 ms.
Intrinsic tran analysis time:    CPU = 537.178 ms, elapsed = 566.118 ms.
Total time required for tran analysis `TmpRead-000_TmpRead': CPU = 554.813 ms, elapsed = 583.874 ms.
Time accumulated: CPU = 2.05624 s, elapsed = 2.29844 s.
Peak resident memory used = 87.6 Mbytes.


Notice from spectre during task `MDLControl'.
    158 notices suppressed.


Value of Exported Variables in this iteration of the Search loop ( iteration = 3 ) :
CurBL=0.000842817
TpRd=9.5e-11

+++++++++++++++++++
TpRead = 1.6575e-09
+++++++++++++++++++

**************************************************************
Transient Analysis `TmpRead-000_TmpRead': time = (0 s -> 5 ns)
**************************************************************
DC simulation time: CPU = 13.572 ms, elapsed = 13.5751 ms.

Notice from spectre during transient analysis `TmpRead-000_TmpRead', during task `MDLControl'.
    No outputs were found. Loosening output filter criterion to `allpub'.


Opening the PSF file Cell.raw/TmpRead-000_TmpRead.tran.tran ...
Important parameter values:
    start = 0 s
    outputstart = 0 s
    stop = 5 ns
    step = 5 ps
    maxstep = 100 ps
    ic = all
    useprevic = no
    skipdc = no
    reltol = 1e-03
    abstol(V) = 1 uV
    abstol(I) = 1 pA
    temp = 27 C
    tnom = 27 C
    tempeffects = all
    errpreset = moderate
    method = traponly
    lteratio = 3.5
    relref = sigglobal
    cmin = 5 fF
    gmin = 1 pS


Output and IC/nodeset summary:
                 save   145     (current)
                 save   913     (voltage)

.
Zero diagonal found in Jacobian at `X48.eISensBin2:bs_p1_bs_p2_flow' and `X48.vISample:p'.
........9......

Notice from spectre at time = 815.18 ps during transient analysis `TmpRead-000_TmpRead', during task `MDLControl'.
    Found trapezoidal ringing on node X28.elim2:p.

.........9.......

Notice from spectre at time = 850.965 ps during transient analysis `TmpRead-000_TmpRead', during task `MDLControl'.
    Found trapezoidal ringing on node X28.eBiStable:p.
Notice from spectre at time = 859.037 ps during transient analysis `TmpRead-000_TmpRead', during task `MDLControl'.
    Found trapezoidal ringing on node X28.eRVFit:bs_p1_bs_p2_flow.
Notice from spectre at time = 868.414 ps during transient analysis `TmpRead-000_TmpRead', during task `MDLControl'.
    Found trapezoidal ringing on node X28.eBiStable:p.
Notice from spectre at time = 878.965 ps during transient analysis `TmpRead-000_TmpRead', during task `MDLControl'.
    Found trapezoidal ringing on node X28.eRVFit:bs_p1_bs_p2_flow.
        Further occurrences of this notice will be suppressed.

.........9.........8.........7.........6.........5.........4.........3.........2.........1.........0
Number of accepted tran steps =             605

Notice from spectre during transient analysis `TmpRead-000_TmpRead', during task `MDLControl'.
    Trapezoidal ringing is detected during tran analysis.
        Please use method=trap for better results and performance.


Maximum value achieved for any signal of each quantity: 
V: V(X64.nBiStable) = 10 V
I: I(X28.eMux3:bs_p1_bs_p2_flow) = 77.52 A
If your circuit contains signals of the same quantity that are vastly different in size (such as high voltage circuitry combined with low voltage control circuitry), you should consider specifying global option `bin_relref=yes'.

~~~~~~~~~~~~~~~~~~~~~~~~~~~~~~~~~
Post-Transient Simulation Summary
~~~~~~~~~~~~~~~~~~~~~~~~~~~~~~~~~
   -   Parasitics slow down simulation. To speed up, consider
          add +postlayout on command line
   -   To further speed up simulation, consider
          add ++aps on command line
~~~~~~~~~~~~~~~~~~~~~~~~~~~~~~~~~


During simulation, the CPU load for active processors is :
        Spectre  0 (12.0 %)      1 (4.8 %)       2 (90.5 %)      3 (3.1 %)
        Other   
Initial condition solution time: CPU = 13.666 ms, elapsed = 13.6781 ms.
Intrinsic tran analysis time:    CPU = 624.21 ms, elapsed = 654.229 ms.
Total time required for tran analysis `TmpRead-000_TmpRead': CPU = 643.362 ms, elapsed = 673.513 ms.
Time accumulated: CPU = 2.72133 s, elapsed = 2.99374 s.
Peak resident memory used = 87.6 Mbytes.


Notice from spectre during task `MDLControl'.
    158 notices suppressed.


Value of Exported Variables in this iteration of the Search loop ( iteration = 4 ) :
CurBL=0.000826455
TpRd=4.25e-11

++++++++++++++++++++
TpRead = 1.63125e-09
++++++++++++++++++++

**************************************************************
Transient Analysis `TmpRead-000_TmpRead': time = (0 s -> 5 ns)
**************************************************************
DC simulation time: CPU = 12.508 ms, elapsed = 12.5089 ms.

Notice from spectre during transient analysis `TmpRead-000_TmpRead', during task `MDLControl'.
    No outputs were found. Loosening output filter criterion to `allpub'.


Opening the PSF file Cell.raw/TmpRead-000_TmpRead.tran.tran ...
Important parameter values:
    start = 0 s
    outputstart = 0 s
    stop = 5 ns
    step = 5 ps
    maxstep = 100 ps
    ic = all
    useprevic = no
    skipdc = no
    reltol = 1e-03
    abstol(V) = 1 uV
    abstol(I) = 1 pA
    temp = 27 C
    tnom = 27 C
    tempeffects = all
    errpreset = moderate
    method = traponly
    lteratio = 3.5
    relref = sigglobal
    cmin = 5 fF
    gmin = 1 pS


Output and IC/nodeset summary:
                 save   145     (current)
                 save   913     (voltage)

Zero diagonal found in Jacobian at `X23.eISensBin1:bs_p1_bs_p2_flow' and `X23.vISample:p'.
Zero diagonal found in Jacobian at `X52.eISensBin2:bs_p1_bs_p2_flow' and `X52.vISample:p'.
.........9......

Notice from spectre at time = 815.177 ps during transient analysis `TmpRead-000_TmpRead', during task `MDLControl'.
    Found trapezoidal ringing on node X28.elim2:p.

.........9.......

Notice from spectre at time = 850.564 ps during transient analysis `TmpRead-000_TmpRead', during task `MDLControl'.
    Found trapezoidal ringing on node X28.eVTMR:p.
Notice from spectre at time = 858.574 ps during transient analysis `TmpRead-000_TmpRead', during task `MDLControl'.
    Found trapezoidal ringing on node X28.eBiStable:p.
Notice from spectre at time = 867.876 ps during transient analysis `TmpRead-000_TmpRead', during task `MDLControl'.
    Found trapezoidal ringing on node X28.eVTMR:p.
Notice from spectre at time = 878.368 ps during transient analysis `TmpRead-000_TmpRead', during task `MDLControl'.
    Found trapezoidal ringing on node X28.eBiStable:p.
        Further occurrences of this notice will be suppressed.

.........9.........8.........7.........6.........5.........4.........3.........2.........1.........0
Number of accepted tran steps =             593

Notice from spectre during transient analysis `TmpRead-000_TmpRead', during task `MDLControl'.
    Trapezoidal ringing is detected during tran analysis.
        Please use method=trap for better results and performance.


Maximum value achieved for any signal of each quantity: 
V: V(X64.nBiStable) = 10 V
I: I(X28.eMux3:bs_p1_bs_p2_flow) = 310.1 A
If your circuit contains signals of the same quantity that are vastly different in size (such as high voltage circuitry combined with low voltage control circuitry), you should consider specifying global option `bin_relref=yes'.

~~~~~~~~~~~~~~~~~~~~~~~~~~~~~~~~~
Post-Transient Simulation Summary
~~~~~~~~~~~~~~~~~~~~~~~~~~~~~~~~~
   -   Parasitics slow down simulation. To speed up, consider
          add +postlayout on command line
   -   To further speed up simulation, consider
          add ++aps on command line
~~~~~~~~~~~~~~~~~~~~~~~~~~~~~~~~~


During simulation, the CPU load for active processors is :
        Spectre  0 (10.0 %)      1 (4.3 %)       2 (91.2 %)      3 (2.8 %)
        Other   
Initial condition solution time: CPU = 12.56 ms, elapsed = 12.568 ms.
Intrinsic tran analysis time:    CPU = 515.767 ms, elapsed = 543.958 ms.
Total time required for tran analysis `TmpRead-000_TmpRead': CPU = 533.362 ms, elapsed = 561.669 ms.
Time accumulated: CPU = 3.27612 s, elapsed = 3.57689 s.
Peak resident memory used = 87.6 Mbytes.


Notice from spectre during task `MDLControl'.
    158 notices suppressed.


Value of Exported Variables in this iteration of the Search loop ( iteration = 5 ) :
CurBL=0.000841503
TpRd=6.875e-11

++++++++++++++++++++
TpRead = 1.64438e-09
++++++++++++++++++++

**************************************************************
Transient Analysis `TmpRead-000_TmpRead': time = (0 s -> 5 ns)
**************************************************************
DC simulation time: CPU = 12.426 ms, elapsed = 12.4269 ms.

Notice from spectre during transient analysis `TmpRead-000_TmpRead', during task `MDLControl'.
    No outputs were found. Loosening output filter criterion to `allpub'.


Opening the PSF file Cell.raw/TmpRead-000_TmpRead.tran.tran ...
Important parameter values:
    start = 0 s
    outputstart = 0 s
    stop = 5 ns
    step = 5 ps
    maxstep = 100 ps
    ic = all
    useprevic = no
    skipdc = no
    reltol = 1e-03
    abstol(V) = 1 uV
    abstol(I) = 1 pA
    temp = 27 C
    tnom = 27 C
    tempeffects = all
    errpreset = moderate
    method = traponly
    lteratio = 3.5
    relref = sigglobal
    cmin = 5 fF
    gmin = 1 pS


Output and IC/nodeset summary:
                 save   145     (current)
                 save   913     (voltage)

.........9......

Notice from spectre at time = 815.177 ps during transient analysis `TmpRead-000_TmpRead', during task `MDLControl'.
    Found trapezoidal ringing on node X28.elim2:p.

.........9.......

Notice from spectre at time = 850.564 ps during transient analysis `TmpRead-000_TmpRead', during task `MDLControl'.
    Found trapezoidal ringing on node X28.eVTMR:p.
Notice from spectre at time = 858.574 ps during transient analysis `TmpRead-000_TmpRead', during task `MDLControl'.
    Found trapezoidal ringing on node X28.eBiStable:p.
Notice from spectre at time = 867.876 ps during transient analysis `TmpRead-000_TmpRead', during task `MDLControl'.
    Found trapezoidal ringing on node X28.eVTMR:p.
Notice from spectre at time = 878.368 ps during transient analysis `TmpRead-000_TmpRead', during task `MDLControl'.
    Found trapezoidal ringing on node X28.eBiStable:p.
        Further occurrences of this notice will be suppressed.

.........9.........8.........7.........6.........5.........4.........3.........2.........1.........0
Number of accepted tran steps =             559

Notice from spectre during transient analysis `TmpRead-000_TmpRead', during task `MDLControl'.
    Trapezoidal ringing is detected during tran analysis.
        Please use method=trap for better results and performance.


Maximum value achieved for any signal of each quantity: 
V: V(X64.nBiStable) = 10 V
I: I(X28.eMux3:bs_p1_bs_p2_flow) = 77.52 A
If your circuit contains signals of the same quantity that are vastly different in size (such as high voltage circuitry combined with low voltage control circuitry), you should consider specifying global option `bin_relref=yes'.

~~~~~~~~~~~~~~~~~~~~~~~~~~~~~~~~~
Post-Transient Simulation Summary
~~~~~~~~~~~~~~~~~~~~~~~~~~~~~~~~~
   -   Parasitics slow down simulation. To speed up, consider
          add +postlayout on command line
   -   To further speed up simulation, consider
          add ++aps on command line
~~~~~~~~~~~~~~~~~~~~~~~~~~~~~~~~~


During simulation, the CPU load for active processors is :
        Spectre  0 (8.9 %)       1 (3.7 %)       2 (91.4 %)      3 (2.9 %)
        Other   
Initial condition solution time: CPU = 12.479 ms, elapsed = 12.486 ms.
Intrinsic tran analysis time:    CPU = 490.205 ms, elapsed = 518.858 ms.
Total time required for tran analysis `TmpRead-000_TmpRead': CPU = 507.571 ms, elapsed = 536.342 ms.
Time accumulated: CPU = 3.80531 s, elapsed = 4.13491 s.
Peak resident memory used = 87.6 Mbytes.


Notice from spectre during task `MDLControl'.
    119 notices suppressed.


Value of Exported Variables in this iteration of the Search loop ( iteration = 6 ) :
CurBL=0.000838071
TpRd=5.5625e-11

++++++++++++++++++++
TpRead = 1.65094e-09
++++++++++++++++++++

**************************************************************
Transient Analysis `TmpRead-000_TmpRead': time = (0 s -> 5 ns)
**************************************************************
DC simulation time: CPU = 12.368 ms, elapsed = 12.3689 ms.

Notice from spectre during transient analysis `TmpRead-000_TmpRead', during task `MDLControl'.
    No outputs were found. Loosening output filter criterion to `allpub'.


Opening the PSF file Cell.raw/TmpRead-000_TmpRead.tran.tran ...
Important parameter values:
    start = 0 s
    outputstart = 0 s
    stop = 5 ns
    step = 5 ps
    maxstep = 100 ps
    ic = all
    useprevic = no
    skipdc = no
    reltol = 1e-03
    abstol(V) = 1 uV
    abstol(I) = 1 pA
    temp = 27 C
    tnom = 27 C
    tempeffects = all
    errpreset = moderate
    method = traponly
    lteratio = 3.5
    relref = sigglobal
    cmin = 5 fF
    gmin = 1 pS


Output and IC/nodeset summary:
                 save   145     (current)
                 save   913     (voltage)

.........9......

Notice from spectre at time = 815.177 ps during transient analysis `TmpRead-000_TmpRead', during task `MDLControl'.
    Found trapezoidal ringing on node X28.elim2:p.

.........9.......

Notice from spectre at time = 850.564 ps during transient analysis `TmpRead-000_TmpRead', during task `MDLControl'.
    Found trapezoidal ringing on node X28.eVTMR:p.
Notice from spectre at time = 858.574 ps during transient analysis `TmpRead-000_TmpRead', during task `MDLControl'.
    Found trapezoidal ringing on node X28.eBiStable:p.
Notice from spectre at time = 867.876 ps during transient analysis `TmpRead-000_TmpRead', during task `MDLControl'.
    Found trapezoidal ringing on node X28.eVTMR:p.
Notice from spectre at time = 878.368 ps during transient analysis `TmpRead-000_TmpRead', during task `MDLControl'.
    Found trapezoidal ringing on node X28.eBiStable:p.
        Further occurrences of this notice will be suppressed.

.........9.........8.........7.........6.........5.........4.........3.........2.........1.........0
Number of accepted tran steps =             603

Notice from spectre during transient analysis `TmpRead-000_TmpRead', during task `MDLControl'.
    Trapezoidal ringing is detected during tran analysis.
        Please use method=trap for better results and performance.


Maximum value achieved for any signal of each quantity: 
V: V(X64.nBiStable) = 10 V
I: I(X28.eMux3:bs_p1_bs_p2_flow) = 77.52 A
If your circuit contains signals of the same quantity that are vastly different in size (such as high voltage circuitry combined with low voltage control circuitry), you should consider specifying global option `bin_relref=yes'.

~~~~~~~~~~~~~~~~~~~~~~~~~~~~~~~~~
Post-Transient Simulation Summary
~~~~~~~~~~~~~~~~~~~~~~~~~~~~~~~~~
   -   Parasitics slow down simulation. To speed up, consider
          add +postlayout on command line
   -   To further speed up simulation, consider
          add ++aps on command line
~~~~~~~~~~~~~~~~~~~~~~~~~~~~~~~~~


During simulation, the CPU load for active processors is :
        Spectre  0 (8.2 %)       1 (3.2 %)       2 (92.1 %)      3 (2.8 %)
        Other   
Initial condition solution time: CPU = 12.42 ms, elapsed = 12.4269 ms.
Intrinsic tran analysis time:    CPU = 516.667 ms, elapsed = 545.462 ms.
Total time required for tran analysis `TmpRead-000_TmpRead': CPU = 534.015 ms, elapsed = 562.928 ms.
Time accumulated: CPU = 4.36048 s, elapsed = 4.71907 s.
Peak resident memory used = 87.6 Mbytes.


Notice from spectre during task `MDLControl'.
    179 notices suppressed.


Value of Exported Variables in this iteration of the Search loop ( iteration = 7 ) :
CurBL=0.000834761
TpRd=4.90625e-11

++++++++++++++++++++
TpRead = 1.65422e-09
++++++++++++++++++++

**************************************************************
Transient Analysis `TmpRead-000_TmpRead': time = (0 s -> 5 ns)
**************************************************************
DC simulation time: CPU = 12.497 ms, elapsed = 12.4989 ms.

Notice from spectre during transient analysis `TmpRead-000_TmpRead', during task `MDLControl'.
    No outputs were found. Loosening output filter criterion to `allpub'.


Opening the PSF file Cell.raw/TmpRead-000_TmpRead.tran.tran ...
Important parameter values:
    start = 0 s
    outputstart = 0 s
    stop = 5 ns
    step = 5 ps
    maxstep = 100 ps
    ic = all
    useprevic = no
    skipdc = no
    reltol = 1e-03
    abstol(V) = 1 uV
    abstol(I) = 1 pA
    temp = 27 C
    tnom = 27 C
    tempeffects = all
    errpreset = moderate
    method = traponly
    lteratio = 3.5
    relref = sigglobal
    cmin = 5 fF
    gmin = 1 pS


Output and IC/nodeset summary:
                 save   145     (current)
                 save   913     (voltage)

Zero diagonal found in Jacobian at `X26.eISensBin1:bs_p1_bs_p2_flow' and `X26.vISample:p'.
.........9......

Notice from spectre at time = 815.177 ps during transient analysis `TmpRead-000_TmpRead', during task `MDLControl'.
    Found trapezoidal ringing on node X28.elim2:p.

.........9.......

Notice from spectre at time = 850.564 ps during transient analysis `TmpRead-000_TmpRead', during task `MDLControl'.
    Found trapezoidal ringing on node X28.eVTMR:p.
Notice from spectre at time = 858.574 ps during transient analysis `TmpRead-000_TmpRead', during task `MDLControl'.
    Found trapezoidal ringing on node X28.eBiStable:p.
Notice from spectre at time = 867.876 ps during transient analysis `TmpRead-000_TmpRead', during task `MDLControl'.
    Found trapezoidal ringing on node X28.eVTMR:p.
Notice from spectre at time = 878.368 ps during transient analysis `TmpRead-000_TmpRead', during task `MDLControl'.
    Found trapezoidal ringing on node X28.eBiStable:p.
        Further occurrences of this notice will be suppressed.

.........9.........8.........7.........6.........5.........4.........3.........2.........1.........0
Number of accepted tran steps =             595

Notice from spectre during transient analysis `TmpRead-000_TmpRead', during task `MDLControl'.
    Trapezoidal ringing is detected during tran analysis.
        Please use method=trap for better results and performance.


Maximum value achieved for any signal of each quantity: 
V: V(X64.nBiStable) = 10 V
I: I(X28.eMux3:bs_p1_bs_p2_flow) = 77.52 A
If your circuit contains signals of the same quantity that are vastly different in size (such as high voltage circuitry combined with low voltage control circuitry), you should consider specifying global option `bin_relref=yes'.

~~~~~~~~~~~~~~~~~~~~~~~~~~~~~~~~~
Post-Transient Simulation Summary
~~~~~~~~~~~~~~~~~~~~~~~~~~~~~~~~~
   -   Parasitics slow down simulation. To speed up, consider
          add +postlayout on command line
   -   To further speed up simulation, consider
          add ++aps on command line
~~~~~~~~~~~~~~~~~~~~~~~~~~~~~~~~~


During simulation, the CPU load for active processors is :
        Spectre  0 (7.2 %)       1 (3.2 %)       2 (92.5 %)      3 (2.4 %)
        Other   
Initial condition solution time: CPU = 12.552 ms, elapsed = 12.5601 ms.
Intrinsic tran analysis time:    CPU = 575.89 ms, elapsed = 603.492 ms.
Total time required for tran analysis `TmpRead-000_TmpRead': CPU = 593.463 ms, elapsed = 621.191 ms.
Time accumulated: CPU = 4.97545 s, elapsed = 5.36183 s.
Peak resident memory used = 87.6 Mbytes.


Notice from spectre during task `MDLControl'.
    140 notices suppressed.


Value of Exported Variables in this iteration of the Search loop ( iteration = 8 ) :
CurBL=0.000831113
TpRd=4.57813e-11

++++++++++++++++++++
TpRead = 1.65586e-09
++++++++++++++++++++

**************************************************************
Transient Analysis `TmpRead-000_TmpRead': time = (0 s -> 5 ns)
**************************************************************
DC simulation time: CPU = 12.502 ms, elapsed = 12.5029 ms.

Notice from spectre during transient analysis `TmpRead-000_TmpRead', during task `MDLControl'.
    No outputs were found. Loosening output filter criterion to `allpub'.


Opening the PSF file Cell.raw/TmpRead-000_TmpRead.tran.tran ...
Important parameter values:
    start = 0 s
    outputstart = 0 s
    stop = 5 ns
    step = 5 ps
    maxstep = 100 ps
    ic = all
    useprevic = no
    skipdc = no
    reltol = 1e-03
    abstol(V) = 1 uV
    abstol(I) = 1 pA
    temp = 27 C
    tnom = 27 C
    tempeffects = all
    errpreset = moderate
    method = traponly
    lteratio = 3.5
    relref = sigglobal
    cmin = 5 fF
    gmin = 1 pS


Output and IC/nodeset summary:
                 save   145     (current)
                 save   913     (voltage)

.
Zero diagonal found in Jacobian at `X11.eISensBin2:bs_p1_bs_p2_flow' and `X11.vISample:p'.
........9......

Notice from spectre at time = 815.18 ps during transient analysis `TmpRead-000_TmpRead', during task `MDLControl'.
    Found trapezoidal ringing on node X28.elim2:p.

.........9.......

Notice from spectre at time = 850.965 ps during transient analysis `TmpRead-000_TmpRead', during task `MDLControl'.
    Found trapezoidal ringing on node X28.eBiStable:p.
Notice from spectre at time = 859.037 ps during transient analysis `TmpRead-000_TmpRead', during task `MDLControl'.
    Found trapezoidal ringing on node X28.eRVFit:bs_p1_bs_p2_flow.
Notice from spectre at time = 868.414 ps during transient analysis `TmpRead-000_TmpRead', during task `MDLControl'.
    Found trapezoidal ringing on node X28.eBiStable:p.
Notice from spectre at time = 878.965 ps during transient analysis `TmpRead-000_TmpRead', during task `MDLControl'.
    Found trapezoidal ringing on node X28.eRVFit:bs_p1_bs_p2_flow.
        Further occurrences of this notice will be suppressed.

.........9.........8.........7.........6.........5.........4.........3.........2.........1.........0
Number of accepted tran steps =             762

Notice from spectre during transient analysis `TmpRead-000_TmpRead', during task `MDLControl'.
    Trapezoidal ringing is detected during tran analysis.
        Please use method=trap for better results and performance.


Maximum value achieved for any signal of each quantity: 
V: V(X64.nBiStable) = 10 V
I: I(X28.eMux3:bs_p1_bs_p2_flow) = 77.52 A
If your circuit contains signals of the same quantity that are vastly different in size (such as high voltage circuitry combined with low voltage control circuitry), you should consider specifying global option `bin_relref=yes'.

~~~~~~~~~~~~~~~~~~~~~~~~~~~~~~~~~
Post-Transient Simulation Summary
~~~~~~~~~~~~~~~~~~~~~~~~~~~~~~~~~
   -   Parasitics slow down simulation. To speed up, consider
          add +postlayout on command line
   -   To further speed up simulation, consider
          add ++aps on command line
~~~~~~~~~~~~~~~~~~~~~~~~~~~~~~~~~


During simulation, the CPU load for active processors is :
        Spectre  0 (6.3 %)       1 (2.9 %)       2 (93.1 %)      3 (2.4 %)
        Other   
Initial condition solution time: CPU = 12.553 ms, elapsed = 12.5608 ms.
Intrinsic tran analysis time:    CPU = 831.241 ms, elapsed = 857.653 ms.
Total time required for tran analysis `TmpRead-000_TmpRead': CPU = 848.766 ms, elapsed = 875.298 ms.
Time accumulated: CPU = 5.84697 s, elapsed = 6.25994 s.
Peak resident memory used = 87.6 Mbytes.


Notice from spectre during task `MDLControl'.
    243 notices suppressed.


Value of Exported Variables in this iteration of the Search loop ( iteration = 9 ) :
CurBL=0.000828776
TpRd=4.41406e-11

++++++++++++++++++++
TpRead = 1.65504e-09
++++++++++++++++++++

**************************************************************
Transient Analysis `TmpRead-000_TmpRead': time = (0 s -> 5 ns)
**************************************************************
DC simulation time: CPU = 11.922 ms, elapsed = 11.925 ms.

Notice from spectre during transient analysis `TmpRead-000_TmpRead', during task `MDLControl'.
    No outputs were found. Loosening output filter criterion to `allpub'.


Opening the PSF file Cell.raw/TmpRead-000_TmpRead.tran.tran ...
Important parameter values:
    start = 0 s
    outputstart = 0 s
    stop = 5 ns
    step = 5 ps
    maxstep = 100 ps
    ic = all
    useprevic = no
    skipdc = no
    reltol = 1e-03
    abstol(V) = 1 uV
    abstol(I) = 1 pA
    temp = 27 C
    tnom = 27 C
    tempeffects = all
    errpreset = moderate
    method = traponly
    lteratio = 3.5
    relref = sigglobal
    cmin = 5 fF
    gmin = 1 pS


Output and IC/nodeset summary:
                 save   145     (current)
                 save   913     (voltage)

.
Zero diagonal found in Jacobian at `X25.eISensBin2:bs_p1_bs_p2_flow' and `X25.vISample:p'.
........9......

Notice from spectre at time = 815.18 ps during transient analysis `TmpRead-000_TmpRead', during task `MDLControl'.
    Found trapezoidal ringing on node X28.elim2:p.

.........9.......

Notice from spectre at time = 850.965 ps during transient analysis `TmpRead-000_TmpRead', during task `MDLControl'.
    Found trapezoidal ringing on node X28.eBiStable:p.
Notice from spectre at time = 859.037 ps during transient analysis `TmpRead-000_TmpRead', during task `MDLControl'.
    Found trapezoidal ringing on node X28.eRVFit:bs_p1_bs_p2_flow.
Notice from spectre at time = 868.414 ps during transient analysis `TmpRead-000_TmpRead', during task `MDLControl'.
    Found trapezoidal ringing on node X28.eBiStable:p.
Notice from spectre at time = 878.965 ps during transient analysis `TmpRead-000_TmpRead', during task `MDLControl'.
    Found trapezoidal ringing on node X28.eRVFit:bs_p1_bs_p2_flow.
        Further occurrences of this notice will be suppressed.

.........9.........8.........7.........6.........5.........4.........3.........2.........1.........0
Number of accepted tran steps =             605

Notice from spectre during transient analysis `TmpRead-000_TmpRead', during task `MDLControl'.
    Trapezoidal ringing is detected during tran analysis.
        Please use method=trap for better results and performance.


Maximum value achieved for any signal of each quantity: 
V: V(X64.nBiStable) = 10 V
I: I(X28.eMux3:bs_p1_bs_p2_flow) = 77.52 A
If your circuit contains signals of the same quantity that are vastly different in size (such as high voltage circuitry combined with low voltage control circuitry), you should consider specifying global option `bin_relref=yes'.

~~~~~~~~~~~~~~~~~~~~~~~~~~~~~~~~~
Post-Transient Simulation Summary
~~~~~~~~~~~~~~~~~~~~~~~~~~~~~~~~~
   -   Parasitics slow down simulation. To speed up, consider
          add +postlayout on command line
   -   To further speed up simulation, consider
          add ++aps on command line
~~~~~~~~~~~~~~~~~~~~~~~~~~~~~~~~~


During simulation, the CPU load for active processors is :
        Spectre  0 (5.8 %)       1 (2.8 %)       2 (93.5 %)      3 (2.2 %)
        Other   
Initial condition solution time: CPU = 11.98 ms, elapsed = 11.9882 ms.
Intrinsic tran analysis time:    CPU = 628.719 ms, elapsed = 657.305 ms.
Total time required for tran analysis `TmpRead-000_TmpRead': CPU = 646.006 ms, elapsed = 674.709 ms.
Time accumulated: CPU = 6.51422 s, elapsed = 6.95595 s.
Peak resident memory used = 87.6 Mbytes.


Notice from spectre during task `MDLControl'.
    159 notices suppressed.


Value of Exported Variables in this iteration of the Search loop ( iteration = 10 ) :
CurBL=0.000829937
TpRd=4.49609e-11

++++++++++++++++++++
TpRead = 1.65463e-09
++++++++++++++++++++

**************************************************************
Transient Analysis `TmpRead-000_TmpRead': time = (0 s -> 5 ns)
**************************************************************
DC simulation time: CPU = 13.005 ms, elapsed = 13.006 ms.

Notice from spectre during transient analysis `TmpRead-000_TmpRead', during task `MDLControl'.
    No outputs were found. Loosening output filter criterion to `allpub'.


Opening the PSF file Cell.raw/TmpRead-000_TmpRead.tran.tran ...
Important parameter values:
    start = 0 s
    outputstart = 0 s
    stop = 5 ns
    step = 5 ps
    maxstep = 100 ps
    ic = all
    useprevic = no
    skipdc = no
    reltol = 1e-03
    abstol(V) = 1 uV
    abstol(I) = 1 pA
    temp = 27 C
    tnom = 27 C
    tempeffects = all
    errpreset = moderate
    method = traponly
    lteratio = 3.5
    relref = sigglobal
    cmin = 5 fF
    gmin = 1 pS


Output and IC/nodeset summary:
                 save   145     (current)
                 save   913     (voltage)

Zero diagonal found in Jacobian at `X17.eISensBin1:bs_p1_bs_p2_flow' and `X17.vISample:p'.
.........9......

Notice from spectre at time = 815.177 ps during transient analysis `TmpRead-000_TmpRead', during task `MDLControl'.
    Found trapezoidal ringing on node X28.elim2:p.

.........9.......

Notice from spectre at time = 850.564 ps during transient analysis `TmpRead-000_TmpRead', during task `MDLControl'.
    Found trapezoidal ringing on node X28.eVTMR:p.
Notice from spectre at time = 858.574 ps during transient analysis `TmpRead-000_TmpRead', during task `MDLControl'.
    Found trapezoidal ringing on node X28.eBiStable:p.
Notice from spectre at time = 867.876 ps during transient analysis `TmpRead-000_TmpRead', during task `MDLControl'.
    Found trapezoidal ringing on node X28.eVTMR:p.
Notice from spectre at time = 878.368 ps during transient analysis `TmpRead-000_TmpRead', during task `MDLControl'.
    Found trapezoidal ringing on node X28.eBiStable:p.
        Further occurrences of this notice will be suppressed.

.........9.........8.........7.........6.........5.........4.........3.........2.........1.........0
Number of accepted tran steps =             706

Notice from spectre during transient analysis `TmpRead-000_TmpRead', during task `MDLControl'.
    Trapezoidal ringing is detected during tran analysis.
        Please use method=trap for better results and performance.


Maximum value achieved for any signal of each quantity: 
V: V(X64.nBiStable) = 10 V
I: I(X28.eMux3:bs_p1_bs_p2_flow) = 310.1 A
If your circuit contains signals of the same quantity that are vastly different in size (such as high voltage circuitry combined with low voltage control circuitry), you should consider specifying global option `bin_relref=yes'.

~~~~~~~~~~~~~~~~~~~~~~~~~~~~~~~~~
Post-Transient Simulation Summary
~~~~~~~~~~~~~~~~~~~~~~~~~~~~~~~~~
   -   Parasitics slow down simulation. To speed up, consider
          add +postlayout on command line
   -   To further speed up simulation, consider
          add ++aps on command line
~~~~~~~~~~~~~~~~~~~~~~~~~~~~~~~~~


During simulation, the CPU load for active processors is :
        Spectre  0 (5.5 %)       1 (2.7 %)       2 (93.7 %)      3 (2.1 %)
        Other   
Initial condition solution time: CPU = 13.055 ms, elapsed = 13.0639 ms.
Intrinsic tran analysis time:    CPU = 698.11 ms, elapsed = 729.974 ms.
Total time required for tran analysis `TmpRead-000_TmpRead': CPU = 716.085 ms, elapsed = 748.071 ms.
Time accumulated: CPU = 7.25024 s, elapsed = 7.72402 s.
Peak resident memory used = 87.6 Mbytes.


Notice from spectre during task `MDLControl'.
    185 notices suppressed.


Value of Exported Variables in this iteration of the Search loop ( iteration = 11 ) :
CurBL=0.000830518
TpRd=4.53711e-11

++++++++++++++++++++
TpRead = 1.65483e-09
++++++++++++++++++++

**************************************************************
Transient Analysis `TmpRead-000_TmpRead': time = (0 s -> 5 ns)
**************************************************************
DC simulation time: CPU = 12.52 ms, elapsed = 12.521 ms.

Notice from spectre during transient analysis `TmpRead-000_TmpRead', during task `MDLControl'.
    No outputs were found. Loosening output filter criterion to `allpub'.


Opening the PSF file Cell.raw/TmpRead-000_TmpRead.tran.tran ...
Important parameter values:
    start = 0 s
    outputstart = 0 s
    stop = 5 ns
    step = 5 ps
    maxstep = 100 ps
    ic = all
    useprevic = no
    skipdc = no
    reltol = 1e-03
    abstol(V) = 1 uV
    abstol(I) = 1 pA
    temp = 27 C
    tnom = 27 C
    tempeffects = all
    errpreset = moderate
    method = traponly
    lteratio = 3.5
    relref = sigglobal
    cmin = 5 fF
    gmin = 1 pS


Output and IC/nodeset summary:
                 save   145     (current)
                 save   913     (voltage)

.........9......

Notice from spectre at time = 815.177 ps during transient analysis `TmpRead-000_TmpRead', during task `MDLControl'.
    Found trapezoidal ringing on node X28.elim2:p.

.........9.......

Notice from spectre at time = 850.564 ps during transient analysis `TmpRead-000_TmpRead', during task `MDLControl'.
    Found trapezoidal ringing on node X28.eVTMR:p.
Notice from spectre at time = 858.574 ps during transient analysis `TmpRead-000_TmpRead', during task `MDLControl'.
    Found trapezoidal ringing on node X28.eBiStable:p.
Notice from spectre at time = 867.876 ps during transient analysis `TmpRead-000_TmpRead', during task `MDLControl'.
    Found trapezoidal ringing on node X28.eVTMR:p.
Notice from spectre at time = 878.368 ps during transient analysis `TmpRead-000_TmpRead', during task `MDLControl'.
    Found trapezoidal ringing on node X28.eBiStable:p.
        Further occurrences of this notice will be suppressed.

.........9.........8.........7.........6.........5.........4.........3.........2.........1.........0
Number of accepted tran steps =             634

Notice from spectre during transient analysis `TmpRead-000_TmpRead', during task `MDLControl'.
    Trapezoidal ringing is detected during tran analysis.
        Please use method=trap for better results and performance.


Maximum value achieved for any signal of each quantity: 
V: V(X64.nBiStable) = 10 V
I: I(X28.eMux3:bs_p1_bs_p2_flow) = 77.52 A
If your circuit contains signals of the same quantity that are vastly different in size (such as high voltage circuitry combined with low voltage control circuitry), you should consider specifying global option `bin_relref=yes'.

~~~~~~~~~~~~~~~~~~~~~~~~~~~~~~~~~
Post-Transient Simulation Summary
~~~~~~~~~~~~~~~~~~~~~~~~~~~~~~~~~
   -   Parasitics slow down simulation. To speed up, consider
          add +postlayout on command line
   -   To further speed up simulation, consider
          add ++aps on command line
~~~~~~~~~~~~~~~~~~~~~~~~~~~~~~~~~


During simulation, the CPU load for active processors is :
        Spectre  0 (5.7 %)       1 (2.8 %)       2 (93.9 %)      3 (2.2 %)
        Other   
Initial condition solution time: CPU = 12.574 ms, elapsed = 12.5818 ms.
Intrinsic tran analysis time:    CPU = 577.842 ms, elapsed = 608.569 ms.
Total time required for tran analysis `TmpRead-000_TmpRead': CPU = 595.379 ms, elapsed = 626.241 ms.
Time accumulated: CPU = 7.86654 s, elapsed = 8.37125 s.
Peak resident memory used = 87.6 Mbytes.


Notice from spectre during task `MDLControl'.
    219 notices suppressed.


Value of Exported Variables in this iteration of the Search loop ( iteration = 12 ) :
CurBL=0.000830227
TpRd=4.5166e-11

++++++++++++++++++++
TpRead = 1.65494e-09
++++++++++++++++++++

**************************************************************
Transient Analysis `TmpRead-000_TmpRead': time = (0 s -> 5 ns)
**************************************************************
DC simulation time: CPU = 12.969 ms, elapsed = 12.9712 ms.

Notice from spectre during transient analysis `TmpRead-000_TmpRead', during task `MDLControl'.
    No outputs were found. Loosening output filter criterion to `allpub'.


Opening the PSF file Cell.raw/TmpRead-000_TmpRead.tran.tran ...
Important parameter values:
    start = 0 s
    outputstart = 0 s
    stop = 5 ns
    step = 5 ps
    maxstep = 100 ps
    ic = all
    useprevic = no
    skipdc = no
    reltol = 1e-03
    abstol(V) = 1 uV
    abstol(I) = 1 pA
    temp = 27 C
    tnom = 27 C
    tempeffects = all
    errpreset = moderate
    method = traponly
    lteratio = 3.5
    relref = sigglobal
    cmin = 5 fF
    gmin = 1 pS


Output and IC/nodeset summary:
                 save   145     (current)
                 save   913     (voltage)

.
Zero diagonal found in Jacobian at `X18.eISensBin2:bs_p1_bs_p2_flow' and `X18.vISample:p'.
........9......

Notice from spectre at time = 815.18 ps during transient analysis `TmpRead-000_TmpRead', during task `MDLControl'.
    Found trapezoidal ringing on node X28.elim2:p.

.........9.......

Notice from spectre at time = 850.965 ps during transient analysis `TmpRead-000_TmpRead', during task `MDLControl'.
    Found trapezoidal ringing on node X28.eBiStable:p.
Notice from spectre at time = 859.037 ps during transient analysis `TmpRead-000_TmpRead', during task `MDLControl'.
    Found trapezoidal ringing on node X28.eRVFit:bs_p1_bs_p2_flow.
Notice from spectre at time = 868.414 ps during transient analysis `TmpRead-000_TmpRead', during task `MDLControl'.
    Found trapezoidal ringing on node X28.eBiStable:p.
Notice from spectre at time = 878.965 ps during transient analysis `TmpRead-000_TmpRead', during task `MDLControl'.
    Found trapezoidal ringing on node X28.eRVFit:bs_p1_bs_p2_flow.
        Further occurrences of this notice will be suppressed.

.........9.........8.........7.........6.........5.........4.........3.........2.........1.........0
Number of accepted tran steps =             762

Notice from spectre during transient analysis `TmpRead-000_TmpRead', during task `MDLControl'.
    Trapezoidal ringing is detected during tran analysis.
        Please use method=trap for better results and performance.


Maximum value achieved for any signal of each quantity: 
V: V(X64.nBiStable) = 10 V
I: I(X28.eMux3:bs_p1_bs_p2_flow) = 77.52 A
If your circuit contains signals of the same quantity that are vastly different in size (such as high voltage circuitry combined with low voltage control circuitry), you should consider specifying global option `bin_relref=yes'.

~~~~~~~~~~~~~~~~~~~~~~~~~~~~~~~~~
Post-Transient Simulation Summary
~~~~~~~~~~~~~~~~~~~~~~~~~~~~~~~~~
   -   Parasitics slow down simulation. To speed up, consider
          add +postlayout on command line
   -   To further speed up simulation, consider
          add ++aps on command line
~~~~~~~~~~~~~~~~~~~~~~~~~~~~~~~~~


During simulation, the CPU load for active processors is :
        Spectre  0 (5.5 %)       1 (2.8 %)       2 (94.1 %)      3 (2.2 %)
        Other   
Initial condition solution time: CPU = 13.022 ms, elapsed = 13.0301 ms.
Intrinsic tran analysis time:    CPU = 809.907 ms, elapsed = 842.154 ms.
Total time required for tran analysis `TmpRead-000_TmpRead': CPU = 828.109 ms, elapsed = 860.477 ms.
Time accumulated: CPU = 8.71771 s, elapsed = 9.25485 s.
Peak resident memory used = 87.6 Mbytes.


Notice from spectre during task `MDLControl'.
    243 notices suppressed.


Value of Exported Variables in this iteration of the Search loop ( iteration = 13 ) :
CurBL=0.000830082
TpRd=4.50635e-11

++++++++++++++++++++
TpRead = 1.65499e-09
++++++++++++++++++++

**************************************************************
Transient Analysis `TmpRead-000_TmpRead': time = (0 s -> 5 ns)
**************************************************************
DC simulation time: CPU = 12.301 ms, elapsed = 12.3029 ms.

Notice from spectre during transient analysis `TmpRead-000_TmpRead', during task `MDLControl'.
    No outputs were found. Loosening output filter criterion to `allpub'.


Opening the PSF file Cell.raw/TmpRead-000_TmpRead.tran.tran ...
Important parameter values:
    start = 0 s
    outputstart = 0 s
    stop = 5 ns
    step = 5 ps
    maxstep = 100 ps
    ic = all
    useprevic = no
    skipdc = no
    reltol = 1e-03
    abstol(V) = 1 uV
    abstol(I) = 1 pA
    temp = 27 C
    tnom = 27 C
    tempeffects = all
    errpreset = moderate
    method = traponly
    lteratio = 3.5
    relref = sigglobal
    cmin = 5 fF
    gmin = 1 pS


Output and IC/nodeset summary:
                 save   145     (current)
                 save   913     (voltage)

Zero diagonal found in Jacobian at `X32.elim1:p' and `X32.n50'.
.........9......

Notice from spectre at time = 815.177 ps during transient analysis `TmpRead-000_TmpRead', during task `MDLControl'.
    Found trapezoidal ringing on node X28.elim2:p.

.........9.......

Notice from spectre at time = 850.564 ps during transient analysis `TmpRead-000_TmpRead', during task `MDLControl'.
    Found trapezoidal ringing on node X28.eVTMR:p.
Notice from spectre at time = 858.574 ps during transient analysis `TmpRead-000_TmpRead', during task `MDLControl'.
    Found trapezoidal ringing on node X28.eBiStable:p.
Notice from spectre at time = 867.876 ps during transient analysis `TmpRead-000_TmpRead', during task `MDLControl'.
    Found trapezoidal ringing on node X28.eVTMR:p.
Notice from spectre at time = 878.368 ps during transient analysis `TmpRead-000_TmpRead', during task `MDLControl'.
    Found trapezoidal ringing on node X28.eBiStable:p.
        Further occurrences of this notice will be suppressed.

.........9.........8.........7.........6.........5.........4.........3.........2.........1.........0
Number of accepted tran steps =             630

Notice from spectre during transient analysis `TmpRead-000_TmpRead', during task `MDLControl'.
    Trapezoidal ringing is detected during tran analysis.
        Please use method=trap for better results and performance.


Maximum value achieved for any signal of each quantity: 
V: V(X64.nBiStable) = 10 V
I: I(X28.eMux3:bs_p1_bs_p2_flow) = 310.1 A
If your circuit contains signals of the same quantity that are vastly different in size (such as high voltage circuitry combined with low voltage control circuitry), you should consider specifying global option `bin_relref=yes'.

~~~~~~~~~~~~~~~~~~~~~~~~~~~~~~~~~
Post-Transient Simulation Summary
~~~~~~~~~~~~~~~~~~~~~~~~~~~~~~~~~
   -   Parasitics slow down simulation. To speed up, consider
          add +postlayout on command line
   -   To further speed up simulation, consider
          add ++aps on command line
~~~~~~~~~~~~~~~~~~~~~~~~~~~~~~~~~


During simulation, the CPU load for active processors is :
        Spectre  0 (5.2 %)       1 (2.7 %)       2 (94.2 %)      3 (2.0 %)
        Other   
Initial condition solution time: CPU = 12.354 ms, elapsed = 12.362 ms.
Intrinsic tran analysis time:    CPU = 533.778 ms, elapsed = 558.269 ms.
Total time required for tran analysis `TmpRead-000_TmpRead': CPU = 551.377 ms, elapsed = 575.981 ms.
Time accumulated: CPU = 9.29027 s, elapsed = 9.85207 s.
Peak resident memory used = 87.6 Mbytes.


Notice from spectre during task `MDLControl'.
    217 notices suppressed.


Value of Exported Variables in this iteration of the Search loop ( iteration = 14 ) :
CurBL=0.00083001
TpRd=4.50122e-11

++++++++++++++++++++
TpRead = 1.65501e-09
++++++++++++++++++++

**************************************************************
Transient Analysis `TmpRead-000_TmpRead': time = (0 s -> 5 ns)
**************************************************************
DC simulation time: CPU = 13.007 ms, elapsed = 13.0088 ms.

Notice from spectre during transient analysis `TmpRead-000_TmpRead', during task `MDLControl'.
    No outputs were found. Loosening output filter criterion to `allpub'.


Opening the PSF file Cell.raw/TmpRead-000_TmpRead.tran.tran ...
Important parameter values:
    start = 0 s
    outputstart = 0 s
    stop = 5 ns
    step = 5 ps
    maxstep = 100 ps
    ic = all
    useprevic = no
    skipdc = no
    reltol = 1e-03
    abstol(V) = 1 uV
    abstol(I) = 1 pA
    temp = 27 C
    tnom = 27 C
    tempeffects = all
    errpreset = moderate
    method = traponly
    lteratio = 3.5
    relref = sigglobal
    cmin = 5 fF
    gmin = 1 pS


Output and IC/nodeset summary:
                 save   145     (current)
                 save   913     (voltage)

.........9......

Notice from spectre at time = 815.177 ps during transient analysis `TmpRead-000_TmpRead', during task `MDLControl'.
    Found trapezoidal ringing on node X28.elim2:p.

.........9.......

Notice from spectre at time = 850.564 ps during transient analysis `TmpRead-000_TmpRead', during task `MDLControl'.
    Found trapezoidal ringing on node X28.eVTMR:p.
Notice from spectre at time = 858.574 ps during transient analysis `TmpRead-000_TmpRead', during task `MDLControl'.
    Found trapezoidal ringing on node X28.eBiStable:p.
Notice from spectre at time = 867.876 ps during transient analysis `TmpRead-000_TmpRead', during task `MDLControl'.
    Found trapezoidal ringing on node X28.eVTMR:p.
Notice from spectre at time = 878.368 ps during transient analysis `TmpRead-000_TmpRead', during task `MDLControl'.
    Found trapezoidal ringing on node X28.eBiStable:p.
        Further occurrences of this notice will be suppressed.

.........9.........8.........7.........6.........5.........4.........3.........2.........1.........0
Number of accepted tran steps =             564

Notice from spectre during transient analysis `TmpRead-000_TmpRead', during task `MDLControl'.
    Trapezoidal ringing is detected during tran analysis.
        Please use method=trap for better results and performance.


Maximum value achieved for any signal of each quantity: 
V: V(X64.nBiStable) = 10 V
I: I(X28.eMux3:bs_p1_bs_p2_flow) = 77.52 A
If your circuit contains signals of the same quantity that are vastly different in size (such as high voltage circuitry combined with low voltage control circuitry), you should consider specifying global option `bin_relref=yes'.

~~~~~~~~~~~~~~~~~~~~~~~~~~~~~~~~~
Post-Transient Simulation Summary
~~~~~~~~~~~~~~~~~~~~~~~~~~~~~~~~~
   -   Parasitics slow down simulation. To speed up, consider
          add +postlayout on command line
   -   To further speed up simulation, consider
          add ++aps on command line
~~~~~~~~~~~~~~~~~~~~~~~~~~~~~~~~~


During simulation, the CPU load for active processors is :
        Spectre  0 (5.1 %)       1 (2.7 %)       2 (94.3 %)      3 (2.0 %)
        Other   
Initial condition solution time: CPU = 13.062 ms, elapsed = 13.0699 ms.
Intrinsic tran analysis time:    CPU = 532.743 ms, elapsed = 559.869 ms.
Total time required for tran analysis `TmpRead-000_TmpRead': CPU = 550.791 ms, elapsed = 578.033 ms.
Time accumulated: CPU = 9.86315 s, elapsed = 10.4523 s.
Peak resident memory used = 87.6 Mbytes.


Notice from spectre during task `MDLControl'.
    129 notices suppressed.


Value of Exported Variables in this iteration of the Search loop ( iteration = 15 ) :
CurBL=0.000829968
TpRd=4.49866e-11

++++++++++++++++++
TpRead = 1.655e-09
++++++++++++++++++

**************************************************************
Transient Analysis `TmpRead-000_TmpRead': time = (0 s -> 5 ns)
**************************************************************
DC simulation time: CPU = 12.771 ms, elapsed = 12.7721 ms.

Notice from spectre during transient analysis `TmpRead-000_TmpRead', during task `MDLControl'.
    No outputs were found. Loosening output filter criterion to `allpub'.


Opening the PSF file Cell.raw/TmpRead-000_TmpRead.tran.tran ...
Important parameter values:
    start = 0 s
    outputstart = 0 s
    stop = 5 ns
    step = 5 ps
    maxstep = 100 ps
    ic = all
    useprevic = no
    skipdc = no
    reltol = 1e-03
    abstol(V) = 1 uV
    abstol(I) = 1 pA
    temp = 27 C
    tnom = 27 C
    tempeffects = all
    errpreset = moderate
    method = traponly
    lteratio = 3.5
    relref = sigglobal
    cmin = 5 fF
    gmin = 1 pS


Output and IC/nodeset summary:
                 save   145     (current)
                 save   913     (voltage)

Zero diagonal found in Jacobian at `X46.eISensBin1:bs_p1_bs_p2_flow' and `X46.nIPos'.
Zero diagonal found in Jacobian at `X46.eISensBin2:bs_p1_bs_p2_flow' and `X46.vISample:p'.
.........9......

Notice from spectre at time = 815.177 ps during transient analysis `TmpRead-000_TmpRead', during task `MDLControl'.
    Found trapezoidal ringing on node X28.elim2:p.

.........9.......

Notice from spectre at time = 850.564 ps during transient analysis `TmpRead-000_TmpRead', during task `MDLControl'.
    Found trapezoidal ringing on node X28.eVTMR:p.
Notice from spectre at time = 858.574 ps during transient analysis `TmpRead-000_TmpRead', during task `MDLControl'.
    Found trapezoidal ringing on node X28.eBiStable:p.
Notice from spectre at time = 867.876 ps during transient analysis `TmpRead-000_TmpRead', during task `MDLControl'.
    Found trapezoidal ringing on node X28.eVTMR:p.
Notice from spectre at time = 878.368 ps during transient analysis `TmpRead-000_TmpRead', during task `MDLControl'.
    Found trapezoidal ringing on node X28.eBiStable:p.
        Further occurrences of this notice will be suppressed.

.........9.........8.........7.........6.........5.........4.........3.........2.........1.........0
Number of accepted tran steps =             591

Notice from spectre during transient analysis `TmpRead-000_TmpRead', during task `MDLControl'.
    Trapezoidal ringing is detected during tran analysis.
        Please use method=trap for better results and performance.


Maximum value achieved for any signal of each quantity: 
V: V(X64.nBiStable) = 10 V
I: I(X28.eMux3:bs_p1_bs_p2_flow) = 310.1 A
If your circuit contains signals of the same quantity that are vastly different in size (such as high voltage circuitry combined with low voltage control circuitry), you should consider specifying global option `bin_relref=yes'.

~~~~~~~~~~~~~~~~~~~~~~~~~~~~~~~~~
Post-Transient Simulation Summary
~~~~~~~~~~~~~~~~~~~~~~~~~~~~~~~~~
   -   Parasitics slow down simulation. To speed up, consider
          add +postlayout on command line
   -   To further speed up simulation, consider
          add ++aps on command line
~~~~~~~~~~~~~~~~~~~~~~~~~~~~~~~~~


During simulation, the CPU load for active processors is :
        Spectre  0 (5.0 %)       1 (2.8 %)       2 (94.3 %)      3 (2.1 %)
        Other   
Initial condition solution time: CPU = 12.827 ms, elapsed = 12.836 ms.
Intrinsic tran analysis time:    CPU = 479.389 ms, elapsed = 513.724 ms.
Total time required for tran analysis `TmpRead-000_TmpRead': CPU = 497.742 ms, elapsed = 532.196 ms.
Time accumulated: CPU = 10.3829 s, elapsed = 11.0065 s.
Peak resident memory used = 87.6 Mbytes.


Notice from spectre during task `MDLControl'.
    205 notices suppressed.


Value of Exported Variables in this iteration of the Search loop ( iteration = 16 ) :
CurBL=0.000829992
TpRd=4.49994e-11

++++++++++++++++++++
TpRead = 1.65499e-09
++++++++++++++++++++

**************************************************************
Transient Analysis `TmpRead-000_TmpRead': time = (0 s -> 5 ns)
**************************************************************
DC simulation time: CPU = 12.168 ms, elapsed = 12.1701 ms.

Notice from spectre during transient analysis `TmpRead-000_TmpRead', during task `MDLControl'.
    No outputs were found. Loosening output filter criterion to `allpub'.


Opening the PSF file Cell.raw/TmpRead-000_TmpRead.tran.tran ...
Important parameter values:
    start = 0 s
    outputstart = 0 s
    stop = 5 ns
    step = 5 ps
    maxstep = 100 ps
    ic = all
    useprevic = no
    skipdc = no
    reltol = 1e-03
    abstol(V) = 1 uV
    abstol(I) = 1 pA
    temp = 27 C
    tnom = 27 C
    tempeffects = all
    errpreset = moderate
    method = traponly
    lteratio = 3.5
    relref = sigglobal
    cmin = 5 fF
    gmin = 1 pS


Output and IC/nodeset summary:
                 save   145     (current)
                 save   913     (voltage)

Zero diagonal found in Jacobian at `X18.eISensBin1:bs_p1_bs_p2_flow' and `X18.vISample:p'.
Zero diagonal found in Jacobian at `X25.eISensBin2:bs_p1_bs_p2_flow' and `X25.vISample:p'.
.........9......

Notice from spectre at time = 815.177 ps during transient analysis `TmpRead-000_TmpRead', during task `MDLControl'.
    Found trapezoidal ringing on node X28.elim2:p.

.........9.......

Notice from spectre at time = 850.564 ps during transient analysis `TmpRead-000_TmpRead', during task `MDLControl'.
    Found trapezoidal ringing on node X28.eVTMR:p.
Notice from spectre at time = 858.574 ps during transient analysis `TmpRead-000_TmpRead', during task `MDLControl'.
    Found trapezoidal ringing on node X28.eBiStable:p.
Notice from spectre at time = 867.876 ps during transient analysis `TmpRead-000_TmpRead', during task `MDLControl'.
    Found trapezoidal ringing on node X28.eVTMR:p.
Notice from spectre at time = 878.368 ps during transient analysis `TmpRead-000_TmpRead', during task `MDLControl'.
    Found trapezoidal ringing on node X28.eBiStable:p.
        Further occurrences of this notice will be suppressed.

.........9.........8.........7.........6.........5.........4.........3.........2.........1.........0
Number of accepted tran steps =             589

Notice from spectre during transient analysis `TmpRead-000_TmpRead', during task `MDLControl'.
    Trapezoidal ringing is detected during tran analysis.
        Please use method=trap for better results and performance.


Maximum value achieved for any signal of each quantity: 
V: V(X64.nBiStable) = 10 V
I: I(X28.eMux3:bs_p1_bs_p2_flow) = 77.52 A
If your circuit contains signals of the same quantity that are vastly different in size (such as high voltage circuitry combined with low voltage control circuitry), you should consider specifying global option `bin_relref=yes'.

~~~~~~~~~~~~~~~~~~~~~~~~~~~~~~~~~
Post-Transient Simulation Summary
~~~~~~~~~~~~~~~~~~~~~~~~~~~~~~~~~
   -   Parasitics slow down simulation. To speed up, consider
          add +postlayout on command line
   -   To further speed up simulation, consider
          add ++aps on command line
~~~~~~~~~~~~~~~~~~~~~~~~~~~~~~~~~


During simulation, the CPU load for active processors is :
        Spectre  0 (5.3 %)       1 (2.8 %)       2 (94.0 %)      3 (2.0 %)
        Other   
Initial condition solution time: CPU = 12.247 ms, elapsed = 12.2571 ms.
Intrinsic tran analysis time:    CPU = 576.058 ms, elapsed = 648.36 ms.
Total time required for tran analysis `TmpRead-000_TmpRead': CPU = 593.592 ms, elapsed = 666.014 ms.
Time accumulated: CPU = 10.9994 s, elapsed = 11.6955 s.
Peak resident memory used = 87.6 Mbytes.


Notice from spectre during task `MDLControl'.
    159 notices suppressed.


Value of Exported Variables in this iteration of the Search loop ( iteration = 17 ) :
CurBL=0.000830001
TpRd=4.50058e-11

++++++++++++++++++
TpRead = 1.655e-09
++++++++++++++++++

**************************************************************
Transient Analysis `TmpRead-000_TmpRead': time = (0 s -> 5 ns)
**************************************************************
DC simulation time: CPU = 12.516 ms, elapsed = 12.5201 ms.

Notice from spectre during transient analysis `TmpRead-000_TmpRead', during task `MDLControl'.
    No outputs were found. Loosening output filter criterion to `allpub'.


Opening the PSF file Cell.raw/TmpRead-000_TmpRead.tran.tran ...
Important parameter values:
    start = 0 s
    outputstart = 0 s
    stop = 5 ns
    step = 5 ps
    maxstep = 100 ps
    ic = all
    useprevic = no
    skipdc = no
    reltol = 1e-03
    abstol(V) = 1 uV
    abstol(I) = 1 pA
    temp = 27 C
    tnom = 27 C
    tempeffects = all
    errpreset = moderate
    method = traponly
    lteratio = 3.5
    relref = sigglobal
    cmin = 5 fF
    gmin = 1 pS


Output and IC/nodeset summary:
                 save   145     (current)
                 save   913     (voltage)

Zero diagonal found in Jacobian at `X12.eISensBin1:bs_p1_bs_p2_flow' and `X12.nIPos'.
Zero diagonal found in Jacobian at `X17.eISensBin2:bs_p1_bs_p2_flow' and `X17.vISample:p'.
.........9......

Notice from spectre at time = 815.177 ps during transient analysis `TmpRead-000_TmpRead', during task `MDLControl'.
    Found trapezoidal ringing on node X28.elim2:p.

.........9.......

Notice from spectre at time = 850.564 ps during transient analysis `TmpRead-000_TmpRead', during task `MDLControl'.
    Found trapezoidal ringing on node X28.eVTMR:p.
Notice from spectre at time = 858.574 ps during transient analysis `TmpRead-000_TmpRead', during task `MDLControl'.
    Found trapezoidal ringing on node X28.eBiStable:p.
Notice from spectre at time = 867.876 ps during transient analysis `TmpRead-000_TmpRead', during task `MDLControl'.
    Found trapezoidal ringing on node X28.eVTMR:p.
Notice from spectre at time = 878.368 ps during transient analysis `TmpRead-000_TmpRead', during task `MDLControl'.
    Found trapezoidal ringing on node X28.eBiStable:p.
        Further occurrences of this notice will be suppressed.

.........9.........8.........7.........6.........5.........4.........3.........2.........1.........0
Number of accepted tran steps =             531

Notice from spectre during transient analysis `TmpRead-000_TmpRead', during task `MDLControl'.
    Trapezoidal ringing is detected during tran analysis.
        Please use method=trap for better results and performance.


Maximum value achieved for any signal of each quantity: 
V: V(X64.nBiStable) = 10 V
I: I(X28.eMux3:bs_p1_bs_p2_flow) = 77.52 A
If your circuit contains signals of the same quantity that are vastly different in size (such as high voltage circuitry combined with low voltage control circuitry), you should consider specifying global option `bin_relref=yes'.

~~~~~~~~~~~~~~~~~~~~~~~~~~~~~~~~~
Post-Transient Simulation Summary
~~~~~~~~~~~~~~~~~~~~~~~~~~~~~~~~~
   -   Parasitics slow down simulation. To speed up, consider
          add +postlayout on command line
   -   To further speed up simulation, consider
          add ++aps on command line
~~~~~~~~~~~~~~~~~~~~~~~~~~~~~~~~~


During simulation, the CPU load for active processors is :
        Spectre  0 (5.4 %)       1 (3.0 %)       2 (94.1 %)      3 (2.0 %)
        Other   
Initial condition solution time: CPU = 12.599 ms, elapsed = 12.61 ms.
Intrinsic tran analysis time:    CPU = 487.811 ms, elapsed = 512.1 ms.
Total time required for tran analysis `TmpRead-000_TmpRead': CPU = 506.272 ms, elapsed = 530.703 ms.
Time accumulated: CPU = 11.5285 s, elapsed = 12.2491 s.
Peak resident memory used = 87.6 Mbytes.


Notice from spectre during task `MDLControl'.
    77 notices suppressed.


Value of Exported Variables in this iteration of the Search loop ( iteration = 18 ) :
CurBL=0.000829996
TpRd=4.50026e-11

++++++++++++++++++
TpRead = 1.655e-09
++++++++++++++++++

**************************************************************
Transient Analysis `TmpRead-000_TmpRead': time = (0 s -> 5 ns)
**************************************************************
DC simulation time: CPU = 11.955 ms, elapsed = 11.9581 ms.

Notice from spectre during transient analysis `TmpRead-000_TmpRead', during task `MDLControl'.
    No outputs were found. Loosening output filter criterion to `allpub'.


Opening the PSF file Cell.raw/TmpRead-000_TmpRead.tran.tran ...
Important parameter values:
    start = 0 s
    outputstart = 0 s
    stop = 5 ns
    step = 5 ps
    maxstep = 100 ps
    ic = all
    useprevic = no
    skipdc = no
    reltol = 1e-03
    abstol(V) = 1 uV
    abstol(I) = 1 pA
    temp = 27 C
    tnom = 27 C
    tempeffects = all
    errpreset = moderate
    method = traponly
    lteratio = 3.5
    relref = sigglobal
    cmin = 5 fF
    gmin = 1 pS


Output and IC/nodeset summary:
                 save   145     (current)
                 save   913     (voltage)

Zero diagonal found in Jacobian at `X7.eISensBin1:bs_p1_bs_p2_flow' and `X7.vISample:p'.
.........9......

Notice from spectre at time = 815.177 ps during transient analysis `TmpRead-000_TmpRead', during task `MDLControl'.
    Found trapezoidal ringing on node X28.elim2:p.

.........9.......

Notice from spectre at time = 850.564 ps during transient analysis `TmpRead-000_TmpRead', during task `MDLControl'.
    Found trapezoidal ringing on node X28.eVTMR:p.
Notice from spectre at time = 858.574 ps during transient analysis `TmpRead-000_TmpRead', during task `MDLControl'.
    Found trapezoidal ringing on node X28.eBiStable:p.
Notice from spectre at time = 867.876 ps during transient analysis `TmpRead-000_TmpRead', during task `MDLControl'.
    Found trapezoidal ringing on node X28.eVTMR:p.
Notice from spectre at time = 878.368 ps during transient analysis `TmpRead-000_TmpRead', during task `MDLControl'.
    Found trapezoidal ringing on node X28.eBiStable:p.
        Further occurrences of this notice will be suppressed.

.........9.........8.........7.........6.........5.........4.........3.........2.........1.........0
Number of accepted tran steps =             615

Notice from spectre during transient analysis `TmpRead-000_TmpRead', during task `MDLControl'.
    Trapezoidal ringing is detected during tran analysis.
        Please use method=trap for better results and performance.


Maximum value achieved for any signal of each quantity: 
V: V(X64.nBiStable) = 10 V
I: I(X28.eMux3:bs_p1_bs_p2_flow) = 310.1 A
If your circuit contains signals of the same quantity that are vastly different in size (such as high voltage circuitry combined with low voltage control circuitry), you should consider specifying global option `bin_relref=yes'.

~~~~~~~~~~~~~~~~~~~~~~~~~~~~~~~~~
Post-Transient Simulation Summary
~~~~~~~~~~~~~~~~~~~~~~~~~~~~~~~~~
   -   Parasitics slow down simulation. To speed up, consider
          add +postlayout on command line
   -   To further speed up simulation, consider
          add ++aps on command line
~~~~~~~~~~~~~~~~~~~~~~~~~~~~~~~~~


During simulation, the CPU load for active processors is :
        Spectre  0 (5.6 %)       1 (3.0 %)       2 (94.1 %)      3 (2.0 %)
        Other   
Initial condition solution time: CPU = 12.017 ms, elapsed = 12.0261 ms.
Intrinsic tran analysis time:    CPU = 538.122 ms, elapsed = 567.103 ms.
Total time required for tran analysis `TmpRead-000_TmpRead': CPU = 556.349 ms, elapsed = 585.422 ms.
Time accumulated: CPU = 12.107 s, elapsed = 12.8567 s.
Peak resident memory used = 87.6 Mbytes.


Notice from spectre during task `MDLControl'.
    188 notices suppressed.


Value of Exported Variables in this iteration of the Search loop ( iteration = 19 ) :
CurBL=0.000829998
TpRd=4.50042e-11

++++++++++++++++++
TpRead = 1.655e-09
++++++++++++++++++

**************************************************************
Transient Analysis `TmpRead-000_TmpRead': time = (0 s -> 5 ns)
**************************************************************
DC simulation time: CPU = 11.489 ms, elapsed = 11.4911 ms.

Notice from spectre during transient analysis `TmpRead-000_TmpRead', during task `MDLControl'.
    No outputs were found. Loosening output filter criterion to `allpub'.


Opening the PSF file Cell.raw/TmpRead-000_TmpRead.tran.tran ...
Important parameter values:
    start = 0 s
    outputstart = 0 s
    stop = 5 ns
    step = 5 ps
    maxstep = 100 ps
    ic = all
    useprevic = no
    skipdc = no
    reltol = 1e-03
    abstol(V) = 1 uV
    abstol(I) = 1 pA
    temp = 27 C
    tnom = 27 C
    tempeffects = all
    errpreset = moderate
    method = traponly
    lteratio = 3.5
    relref = sigglobal
    cmin = 5 fF
    gmin = 1 pS


Output and IC/nodeset summary:
                 save   145     (current)
                 save   913     (voltage)

Zero diagonal found in Jacobian at `X20.eISensBin1:bs_p1_bs_p2_flow' and `X20.vISample:p'.
Zero diagonal found in Jacobian at `X63.eISensBin2:bs_p1_bs_p2_flow' and `X63.vISample:p'.
.........9......

Notice from spectre at time = 815.177 ps during transient analysis `TmpRead-000_TmpRead', during task `MDLControl'.
    Found trapezoidal ringing on node X28.elim2:p.

.........9.......

Notice from spectre at time = 850.564 ps during transient analysis `TmpRead-000_TmpRead', during task `MDLControl'.
    Found trapezoidal ringing on node X28.eVTMR:p.
Notice from spectre at time = 858.574 ps during transient analysis `TmpRead-000_TmpRead', during task `MDLControl'.
    Found trapezoidal ringing on node X28.eBiStable:p.
Notice from spectre at time = 867.876 ps during transient analysis `TmpRead-000_TmpRead', during task `MDLControl'.
    Found trapezoidal ringing on node X28.eVTMR:p.
Notice from spectre at time = 878.368 ps during transient analysis `TmpRead-000_TmpRead', during task `MDLControl'.
    Found trapezoidal ringing on node X28.eBiStable:p.
        Further occurrences of this notice will be suppressed.

[...]
          n : V(NM31) = 800 mV
          v = 0 V
          i = 0 A
        pwr = 0 W

Instance: Vtest32
Model: vsource
Primitive: vsource
          p : V(BL4) = 800 mV
          n : V(NM32) = 800 mV
          v = 0 V
          i = 0 A
        pwr = 0 W

Instance: Vtest33
Model: vsource
Primitive: vsource
          p : V(BL5) = 800 mV
          n : V(NM33) = 800 mV
          v = 0 V
          i = 0 A
        pwr = 0 W

Instance: Vtest34
Model: vsource
Primitive: vsource
          p : V(BL5) = 800 mV
          n : V(NM34) = 800 mV
          v = 0 V
          i = 0 A
        pwr = 0 W

Instance: Vtest35
Model: vsource
Primitive: vsource
          p : V(BL5) = 800 mV
          n : V(NM35) = 800 mV
          v = 0 V
          i = 0 A
        pwr = 0 W

Instance: Vtest36
Model: vsource
Primitive: vsource
          p : V(BL5) = 800 mV
          n : V(NM36) = 800 mV
          v = 0 V
          i = 0 A
        pwr = 0 W

Instance: Vtest37
Model: vsource
Primitive: vsource
          p : V(BL5) = 800 mV
          n : V(NM37) = 800 mV
          v = 0 V
          i = 0 A
        pwr = 0 W

Instance: Vtest38
Model: vsource
Primitive: vsource
          p : V(BL5) = 800 mV
          n : V(NM38) = 800 mV
          v = 0 V
          i = 0 A
        pwr = 0 W

Instance: Vtest39
Model: vsource
Primitive: vsource
          p : V(BL5) = 800 mV
          n : V(NM39) = 800 mV
          v = 0 V
          i = 0 A
        pwr = 0 W

Instance: Vtest40
Model: vsource
Primitive: vsource
          p : V(BL5) = 800 mV
          n : V(NM40) = 800 mV
          v = 0 V
          i = 0 A
        pwr = 0 W

Instance: Vtest41
Model: vsource
Primitive: vsource
          p : V(BL6) = 800 mV
          n : V(NM41) = 800 mV
          v = 0 V
          i = 0 A
        pwr = 0 W

Instance: Vtest42
Model: vsource
Primitive: vsource
          p : V(BL6) = 800 mV
          n : V(NM42) = 800 mV
          v = 0 V
          i = 0 A
        pwr = 0 W

Instance: Vtest43
Model: vsource
Primitive: vsource
          p : V(BL6) = 800 mV
          n : V(NM43) = 800 mV
          v = 0 V
          i = 0 A
        pwr = 0 W

Instance: Vtest44
Model: vsource
Primitive: vsource
          p : V(BL6) = 800 mV
          n : V(NM44) = 800 mV
          v = 0 V
          i = 0 A
        pwr = 0 W

Instance: Vtest45
Model: vsource
Primitive: vsource
          p : V(BL6) = 800 mV
          n : V(NM45) = 800 mV
          v = 0 V
          i = 0 A
        pwr = 0 W

Instance: Vtest46
Model: vsource
Primitive: vsource
          p : V(BL6) = 800 mV
          n : V(NM46) = 800 mV
          v = 0 V
          i = 0 A
        pwr = 0 W

Instance: Vtest47
Model: vsource
Primitive: vsource
          p : V(BL6) = 800 mV
          n : V(NM47) = 800 mV
          v = 0 V
          i = 0 A
        pwr = 0 W

Instance: Vtest48
Model: vsource
Primitive: vsource
          p : V(BL6) = 800 mV
          n : V(NM48) = 800 mV
          v = 0 V
          i = 0 A
        pwr = 0 W

Instance: Vtest49
Model: vsource
Primitive: vsource
          p : V(BL7) = 800 mV
          n : V(NM49) = 800 mV
          v = 0 V
          i = 0 A
        pwr = 0 W

Instance: Vtest50
Model: vsource
Primitive: vsource
          p : V(BL7) = 800 mV
          n : V(NM50) = 800 mV
          v = 0 V
          i = 0 A
        pwr = 0 W

Instance: Vtest51
Model: vsource
Primitive: vsource
          p : V(BL7) = 800 mV
          n : V(NM51) = 800 mV
          v = 0 V
          i = 0 A
        pwr = 0 W

Instance: Vtest52
Model: vsource
Primitive: vsource
          p : V(BL7) = 800 mV
          n : V(NM52) = 800 mV
          v = 0 V
          i = 0 A
        pwr = 0 W

Instance: Vtest53
Model: vsource
Primitive: vsource
          p : V(BL7) = 800 mV
          n : V(NM53) = 800 mV
          v = 0 V
          i = 0 A
        pwr = 0 W

Instance: Vtest54
Model: vsource
Primitive: vsource
          p : V(BL7) = 800 mV
          n : V(NM54) = 800 mV
          v = 0 V
          i = 0 A
        pwr = 0 W

Instance: Vtest55
Model: vsource
Primitive: vsource
          p : V(BL7) = 800 mV
          n : V(NM55) = 800 mV
          v = 0 V
          i = 0 A
        pwr = 0 W

Instance: Vtest56
Model: vsource
Primitive: vsource
          p : V(BL7) = 800 mV
          n : V(NM56) = 800 mV
          v = 0 V
          i = 0 A
        pwr = 0 W

Instance: Vtest57
Model: vsource
Primitive: vsource
          p : V(BL8) = 800 mV
          n : V(NM57) = 800 mV
          v = 0 V
          i = 0 A
        pwr = 0 W

Instance: Vtest58
Model: vsource
Primitive: vsource
          p : V(BL8) = 800 mV
          n : V(NM58) = 800 mV
          v = 0 V
          i = 0 A
        pwr = 0 W

Instance: Vtest59
Model: vsource
Primitive: vsource
          p : V(BL8) = 800 mV
          n : V(NM59) = 800 mV
          v = 0 V
          i = 0 A
        pwr = 0 W

Instance: Vtest60
Model: vsource
Primitive: vsource
          p : V(BL8) = 800 mV
          n : V(NM60) = 800 mV
          v = 0 V
          i = 0 A
        pwr = 0 W

Instance: Vtest61
Model: vsource
Primitive: vsource
          p : V(BL8) = 800 mV
          n : V(NM61) = 800 mV
          v = 0 V
          i = 0 A
        pwr = 0 W

Instance: Vtest62
Model: vsource
Primitive: vsource
          p : V(BL8) = 800 mV
          n : V(NM62) = 800 mV
          v = 0 V
          i = 0 A
        pwr = 0 W

Instance: Vtest63
Model: vsource
Primitive: vsource
          p : V(BL8) = 800 mV
          n : V(NM63) = 800 mV
          v = 0 V
          i = 0 A
        pwr = 0 W

Instance: Vtest64
Model: vsource
Primitive: vsource
          p : V(BL8) = 800 mV
          n : V(NM64) = 800 mV
          v = 0 V
          i = 0 A
        pwr = 0 W

Instance: Vvdd
Model: vsource
Primitive: vsource
          p : V(Vdd) = 1.6 V
          n : val(0) = 0 
          v = 1.6 V
          i = 0 A
        pwr = 0 W

Instance: Vwl1
Model: vsource
Primitive: vsource
          p : V(WL1) = 800 mV
          n : val(0) = 0 
          v = 800 mV
          i = 0 A
        pwr = 0 W

Instance: Vwl2
Model: vsource
Primitive: vsource
          p : V(WL2) = 800 mV
          n : val(0) = 0 
          v = 800 mV
          i = 0 A
        pwr = 0 W

Instance: Vwl3
Model: vsource
Primitive: vsource
          p : V(WL3) = 800 mV
          n : val(0) = 0 
          v = 800 mV
          i = 0 A
        pwr = 0 W

Instance: Vwl4
Model: vsource
Primitive: vsource
          p : V(WL4) = 800 mV
          n : val(0) = 0 
          v = 800 mV
          i = 0 A
        pwr = 0 W

Instance: Vwl5
Model: vsource
Primitive: vsource
          p : V(WL5) = 800 mV
          n : val(0) = 0 
          v = 800 mV
          i = 0 A
        pwr = 0 W

Instance: Vwl6
Model: vsource
Primitive: vsource
          p : V(WL6) = 800 mV
          n : val(0) = 0 
          v = 800 mV
          i = 0 A
        pwr = 0 W

Instance: Vwl7
Model: vsource
Primitive: vsource
          p : V(WL7) = 800 mV
          n : val(0) = 0 
          v = 800 mV
          i = 0 A
        pwr = 0 W

Instance: Vwl8
Model: vsource
Primitive: vsource
          p : V(WL8) = 800 mV
          n : val(0) = 0 
          v = 800 mV
          i = 0 A
        pwr = 0 W

Instance: X1.vISample of MTJT
Model: vsource
Primitive: vsource
          p : V(NM1) = 800 mV
          n : V(X1.nVCR1) = 800 mV
          v = 0 V
          i = 0 A
        pwr = 0 W

Instance: X2.vISample of MTJT
Model: vsource
Primitive: vsource
          p : V(NM2) = 800 mV
          n : V(X2.nVCR1) = 800 mV
          v = 0 V
          i = 0 A
        pwr = 0 W

Instance: X3.vISample of MTJT
Model: vsource
Primitive: vsource
          p : V(NM3) = 800 mV
          n : V(X3.nVCR1) = 800 mV
          v = 0 V
          i = 0 A
        pwr = 0 W

Instance: X4.vISample of MTJT
Model: vsource
Primitive: vsource
          p : V(NM4) = 800 mV
          n : V(X4.nVCR1) = 800 mV
          v = 0 V
          i = 0 A
        pwr = 0 W

Instance: X5.vISample of MTJT
Model: vsource
Primitive: vsource
          p : V(NM5) = 800 mV
          n : V(X5.nVCR1) = 800 mV
          v = 0 V
          i = 0 A
        pwr = 0 W

Instance: X6.vISample of MTJT
Model: vsource
Primitive: vsource
          p : V(NM6) = 800 mV
          n : V(X6.nVCR1) = 800 mV
          v = 0 V
          i = 0 A
        pwr = 0 W

Instance: X7.vISample of MTJT
Model: vsource
Primitive: vsource
          p : V(NM7) = 800 mV
          n : V(X7.nVCR1) = 800 mV
          v = 0 V
          i = 0 A
        pwr = 0 W

Instance: X8.vISample of MTJT
Model: vsource
Primitive: vsource
          p : V(NM8) = 800 mV
          n : V(X8.nVCR1) = 800 mV
          v = 0 V
          i = 0 A
        pwr = 0 W

Instance: X9.vISample of MTJT
Model: vsource
Primitive: vsource
          p : V(NM9) = 800 mV
          n : V(X9.nVCR1) = 800 mV
          v = 0 V
          i = 0 A
        pwr = 0 W

Instance: X10.vISample of MTJT
Model: vsource
Primitive: vsource
          p : V(NM10) = 800 mV
          n : V(X10.nVCR1) = 800 mV
          v = 0 V
          i = 0 A
        pwr = 0 W

Instance: X11.vISample of MTJT
Model: vsource
Primitive: vsource
          p : V(NM11) = 800 mV
          n : V(X11.nVCR1) = 800 mV
          v = 0 V
          i = 0 A
        pwr = 0 W

Instance: X12.vISample of MTJT
Model: vsource
Primitive: vsource
          p : V(NM12) = 800 mV
          n : V(X12.nVCR1) = 800 mV
          v = 0 V
          i = 0 A
        pwr = 0 W

Instance: X13.vISample of MTJT
Model: vsource
Primitive: vsource
          p : V(NM13) = 800 mV
          n : V(X13.nVCR1) = 800 mV
          v = 0 V
          i = 0 A
        pwr = 0 W

Instance: X14.vISample of MTJT
Model: vsource
Primitive: vsource
          p : V(NM14) = 800 mV
          n : V(X14.nVCR1) = 800 mV
          v = 0 V
          i = 0 A
        pwr = 0 W

Instance: X15.vISample of MTJT
Model: vsource
Primitive: vsource
          p : V(NM15) = 800 mV
          n : V(X15.nVCR1) = 800 mV
          v = 0 V
          i = 0 A
        pwr = 0 W

Instance: X16.vISample of MTJT
Model: vsource
Primitive: vsource
          p : V(NM16) = 800 mV
          n : V(X16.nVCR1) = 800 mV
          v = 0 V
          i = 0 A
        pwr = 0 W

Instance: X17.vISample of MTJT
Model: vsource
Primitive: vsource
          p : V(NM17) = 800 mV
          n : V(X17.nVCR1) = 800 mV
          v = 0 V
          i = 0 A
        pwr = 0 W

Instance: X18.vISample of MTJT
Model: vsource
Primitive: vsource
          p : V(NM18) = 800 mV
          n : V(X18.nVCR1) = 800 mV
          v = 0 V
          i = 0 A
        pwr = 0 W

Instance: X19.vISample of MTJT
Model: vsource
Primitive: vsource
          p : V(NM19) = 800 mV
          n : V(X19.nVCR1) = 800 mV
          v = 0 V
          i = 0 A
        pwr = 0 W

Instance: X20.vISample of MTJT
Model: vsource
Primitive: vsource
          p : V(NM20) = 800 mV
          n : V(X20.nVCR1) = 800 mV
          v = 0 V
          i = 0 A
        pwr = 0 W

Instance: X21.vISample of MTJT
Model: vsource
Primitive: vsource
          p : V(NM21) = 800 mV
          n : V(X21.nVCR1) = 800 mV
          v = 0 V
          i = 0 A
        pwr = 0 W

Instance: X22.vISample of MTJT
Model: vsource
Primitive: vsource
          p : V(NM22) = 800 mV
          n : V(X22.nVCR1) = 800 mV
          v = 0 V
          i = 0 A
        pwr = 0 W

Instance: X23.vISample of MTJT
Model: vsource
Primitive: vsource
          p : V(NM23) = 800 mV
          n : V(X23.nVCR1) = 800 mV
          v = 0 V
          i = 0 A
        pwr = 0 W

Instance: X24.vISample of MTJT
Model: vsource
Primitive: vsource
          p : V(NM24) = 800 mV
          n : V(X24.nVCR1) = 800 mV
          v = 0 V
          i = 0 A
        pwr = 0 W

Instance: X25.vISample of MTJT
Model: vsource
Primitive: vsource
          p : V(NM25) = 800 mV
          n : V(X25.nVCR1) = 800 mV
          v = 0 V
          i = 0 A
        pwr = 0 W

Instance: X26.vISample of MTJT
Model: vsource
Primitive: vsource
          p : V(NM26) = 800 mV
          n : V(X26.nVCR1) = 800 mV
          v = 0 V
          i = 0 A
        pwr = 0 W

Instance: X27.vISample of MTJT
Model: vsource
Primitive: vsource
          p : V(NM27) = 800 mV
          n : V(X27.nVCR1) = 800 mV
          v = 0 V
          i = 0 A
        pwr = 0 W

Instance: X28.vISample of MTJT
Model: vsource
Primitive: vsource
          p : V(NM28) = 800 mV
          n : V(X28.nVCR1) = 800 mV
          v = 0 V
          i = 0 A
        pwr = 0 W

Instance: X29.vISample of MTJT
Model: vsource
Primitive: vsource
          p : V(NM29) = 800 mV
          n : V(X29.nVCR1) = 800 mV
          v = 0 V
          i = 0 A
        pwr = 0 W

Instance: X30.vISample of MTJT
Model: vsource
Primitive: vsource
          p : V(NM30) = 800 mV
          n : V(X30.nVCR1) = 800 mV
          v = 0 V
          i = 0 A
        pwr = 0 W

Instance: X31.vISample of MTJT
Model: vsource
Primitive: vsource
          p : V(NM31) = 800 mV
          n : V(X31.nVCR1) = 800 mV
          v = 0 V
          i = 0 A
        pwr = 0 W

Instance: X32.vISample of MTJT
Model: vsource
Primitive: vsource
          p : V(NM32) = 800 mV
          n : V(X32.nVCR1) = 800 mV
          v = 0 V
          i = 0 A
        pwr = 0 W

Instance: X33.vISample of MTJT
Model: vsource
Primitive: vsource
          p : V(NM33) = 800 mV
          n : V(X33.nVCR1) = 800 mV
          v = 0 V
          i = 0 A
        pwr = 0 W

Instance: X34.vISample of MTJT
Model: vsource
Primitive: vsource
          p : V(NM34) = 800 mV
          n : V(X34.nVCR1) = 800 mV
          v = 0 V
          i = 0 A
        pwr = 0 W

Instance: X35.vISample of MTJT
Model: vsource
Primitive: vsource
          p : V(NM35) = 800 mV
          n : V(X35.nVCR1) = 800 mV
          v = 0 V
          i = 0 A
        pwr = 0 W

Instance: X36.vISample of MTJT
Model: vsource
Primitive: vsource
          p : V(NM36) = 800 mV
          n : V(X36.nVCR1) = 800 mV
          v = 0 V
          i = 0 A
        pwr = 0 W

Instance: X37.vISample of MTJT
Model: vsource
Primitive: vsource
          p : V(NM37) = 800 mV
          n : V(X37.nVCR1) = 800 mV
          v = 0 V
          i = 0 A
        pwr = 0 W

Instance: X38.vISample of MTJT
Model: vsource
Primitive: vsource
          p : V(NM38) = 800 mV
          n : V(X38.nVCR1) = 800 mV
          v = 0 V
          i = 0 A
        pwr = 0 W

Instance: X39.vISample of MTJT
Model: vsource
Primitive: vsource
          p : V(NM39) = 800 mV
          n : V(X39.nVCR1) = 800 mV
          v = 0 V
          i = 0 A
        pwr = 0 W

Instance: X40.vISample of MTJT
Model: vsource
Primitive: vsource
          p : V(NM40) = 800 mV
          n : V(X40.nVCR1) = 800 mV
          v = 0 V
          i = 0 A
        pwr = 0 W

Instance: X41.vISample of MTJT
Model: vsource
Primitive: vsource
          p : V(NM41) = 800 mV
          n : V(X41.nVCR1) = 800 mV
          v = 0 V
          i = 0 A
        pwr = 0 W

Instance: X42.vISample of MTJT
Model: vsource
Primitive: vsource
          p : V(NM42) = 800 mV
          n : V(X42.nVCR1) = 800 mV
          v = 0 V
          i = 0 A
        pwr = 0 W

Instance: X43.vISample of MTJT
Model: vsource
Primitive: vsource
          p : V(NM43) = 800 mV
          n : V(X43.nVCR1) = 800 mV
          v = 0 V
          i = 0 A
        pwr = 0 W

Instance: X44.vISample of MTJT
Model: vsource
Primitive: vsource
          p : V(NM44) = 800 mV
          n : V(X44.nVCR1) = 800 mV
          v = 0 V
          i = 0 A
        pwr = 0 W

Instance: X45.vISample of MTJT
Model: vsource
Primitive: vsource
          p : V(NM45) = 800 mV
          n : V(X45.nVCR1) = 800 mV
          v = 0 V
          i = 0 A
        pwr = 0 W

Instance: X46.vISample of MTJT
Model: vsource
Primitive: vsource
          p : V(NM46) = 800 mV
          n : V(X46.nVCR1) = 800 mV
          v = 0 V
          i = 0 A
        pwr = 0 W

Instance: X47.vISample of MTJT
Model: vsource
Primitive: vsource
          p : V(NM47) = 800 mV
          n : V(X47.nVCR1) = 800 mV
          v = 0 V
          i = 0 A
        pwr = 0 W

Instance: X48.vISample of MTJT
Model: vsource
Primitive: vsource
          p : V(NM48) = 800 mV
          n : V(X48.nVCR1) = 800 mV
          v = 0 V
          i = 0 A
        pwr = 0 W

Instance: X49.vISample of MTJT
Model: vsource
Primitive: vsource
          p : V(NM49) = 800 mV
          n : V(X49.nVCR1) = 800 mV
          v = 0 V
          i = 0 A
        pwr = 0 W

Instance: X50.vISample of MTJT
Model: vsource
Primitive: vsource
          p : V(NM50) = 800 mV
          n : V(X50.nVCR1) = 800 mV
          v = 0 V
          i = 0 A
        pwr = 0 W

Instance: X51.vISample of MTJT
Model: vsource
Primitive: vsource
          p : V(NM51) = 800 mV
          n : V(X51.nVCR1) = 800 mV
          v = 0 V
          i = 0 A
        pwr = 0 W

Instance: X52.vISample of MTJT
Model: vsource
Primitive: vsource
          p : V(NM52) = 800 mV
          n : V(X52.nVCR1) = 800 mV
          v = 0 V
          i = 0 A
        pwr = 0 W

Instance: X53.vISample of MTJT
Model: vsource
Primitive: vsource
          p : V(NM53) = 800 mV
          n : V(X53.nVCR1) = 800 mV
          v = 0 V
          i = 0 A
        pwr = 0 W

Instance: X54.vISample of MTJT
Model: vsource
Primitive: vsource
          p : V(NM54) = 800 mV
          n : V(X54.nVCR1) = 800 mV
          v = 0 V
          i = 0 A
        pwr = 0 W

Instance: X55.vISample of MTJT
Model: vsource
Primitive: vsource
          p : V(NM55) = 800 mV
          n : V(X55.nVCR1) = 800 mV
          v = 0 V
          i = 0 A
        pwr = 0 W

Instance: X56.vISample of MTJT
Model: vsource
Primitive: vsource
          p : V(NM56) = 800 mV
          n : V(X56.nVCR1) = 800 mV
          v = 0 V
          i = 0 A
        pwr = 0 W

Instance: X57.vISample of MTJT
Model: vsource
Primitive: vsource
          p : V(NM57) = 800 mV
          n : V(X57.nVCR1) = 800 mV
          v = 0 V
          i = 0 A
        pwr = 0 W

Instance: X58.vISample of MTJT
Model: vsource
Primitive: vsource
          p : V(NM58) = 800 mV
          n : V(X58.nVCR1) = 800 mV
          v = 0 V
          i = 0 A
        pwr = 0 W

Instance: X59.vISample of MTJT
Model: vsource
Primitive: vsource
          p : V(NM59) = 800 mV
          n : V(X59.nVCR1) = 800 mV
          v = 0 V
          i = 0 A
        pwr = 0 W

Instance: X60.vISample of MTJT
Model: vsource
Primitive: vsource
          p : V(NM60) = 800 mV
          n : V(X60.nVCR1) = 800 mV
          v = 0 V
          i = 0 A
        pwr = 0 W

Instance: X61.vISample of MTJT
Model: vsource
Primitive: vsource
          p : V(NM61) = 800 mV
          n : V(X61.nVCR1) = 800 mV
          v = 0 V
          i = 0 A
        pwr = 0 W

Instance: X62.vISample of MTJT
Model: vsource
Primitive: vsource
          p : V(NM62) = 800 mV
          n : V(X62.nVCR1) = 800 mV
          v = 0 V
          i = 0 A
        pwr = 0 W

Instance: X63.vISample of MTJT
Model: vsource
Primitive: vsource
          p : V(NM63) = 800 mV
          n : V(X63.nVCR1) = 800 mV
          v = 0 V
          i = 0 A
        pwr = 0 W

Instance: X64.vISample of MTJT
Model: vsource
Primitive: vsource
          p : V(NM64) = 800 mV
          n : V(X64.nVCR1) = 800 mV
          v = 0 V
          i = 0 A
        pwr = 0 W

Maximum and minimum parameter values for vsource: 
            max v = 1.6 V on Vvdd
            min v = 0 V on Vtest1
            max i = 0 A on Vtest1
            min i = -80 uA on Vbl1
          max pwr = 0 W on Vtest1
          min pwr = -64 uW on Vbl1


Total Power Dissipation = 512 uW.


Convergence achieved in 2 iterations.
DC simulation time: CPU = 146.389 ms, elapsed = 179.319 ms.
Total time required for dc analysis `LeakStat': CPU = 146.487 ms, elapsed = 179.418 ms.
Time accumulated: CPU = 28.8697 s, elapsed = 30.8616 s.
Peak resident memory used = 90.7 Mbytes.


Aggregate audit (9:07:07 PM, Thur Mar 18, 2021):
Time used: CPU = 28.9 s, elapsed = 30.9 s, util. = 93.3%.
Time spent in licensing: elapsed = 28.3 ms.
Peak memory used = 91.1 Mbytes.
Simulation started at: 9:06:36 PM, Thur Mar 18, 2021, ended at: 9:07:07 PM, Thur Mar 18, 2021, with elapsed time (wall clock): 30.9 s.
spectre completes with 0 errors, 4 warnings, and 380 notices.
