
Spectre (R) Circuit Simulator
Version 16.1.0.673.isr14 64bit -- 30 Mar 2018
Copyright (C) 1989-2018 Cadence Design Systems, Inc. All rights reserved worldwide. Cadence and Spectre are registered trademarks of Cadence Design Systems, Inc. All others are the property of their respective holders.

Includes RSA BSAFE(R) Cryptographic or Security Protocol Software from RSA Security, Inc.

User: brunozimmer   Host: itacolomi.lapsi   HostID: 7F0100   PID: 8973
Memory  available: 15.9697 GB  physical: 33.7036 GB
Linux   : CentOS Linux release 7.9.2009 (Core)
CPU Type: Intel(R) Xeon(R) CPU E3-1220 V2 @ 3.10GHz
        Socket: Processors [Frequency]
        0:       0 [2611.8],  1 [2696.6],  2 [2706.3],  3 [2675.8]
        
System load averages (1min, 5min, 15min) : 3.8 %, 2.2 %, 1.5 %


Simulating `Cell.scs' on itacolomi.lapsi at 4:45:05 PM, Mon Mar 22, 2021 (process id: 8973).
Current working directory: /home/brunozimmer/Documentos/ComparacaoMemorias/SRAM/512/Write
Command line:
    /tools/cadence/SPECTRE161/tools.lnx86/bin/spectre -64 =mdl  \
        Energy.mdl Cell.scs

Loading /tools/cadence/SPECTRE161/tools.lnx86/cmi/lib/64bit/5.0/libinfineon_sh.so ...
Loading /tools/cadence/SPECTRE161/tools.lnx86/cmi/lib/64bit/5.0/libphilips_o_sh.so ...
Loading /tools/cadence/SPECTRE161/tools.lnx86/cmi/lib/64bit/5.0/libphilips_sh.so ...
Loading /tools/cadence/SPECTRE161/tools.lnx86/cmi/lib/64bit/5.0/libsparam_sh.so ...
Loading /tools/cadence/SPECTRE161/tools.lnx86/cmi/lib/64bit/5.0/libstmodels_sh.so ...
Loading /tools/cadence/SPECTRE161/tools.lnx86/spectre/lib/64bit/mdl/libSpectreEH_sh.so ...
Reading file:  /home/brunozimmer/Documentos/ComparacaoMemorias/SRAM/512/Write/Cell.scs
Reading file:  /tools/cadence/SPECTRE161/tools.lnx86/spectre/etc/configs/mapsubckt.cfg
Reading file:  /tools/cadence/SPECTRE161/tools.lnx86/spectre/etc/configs/spectre.cfg
Reading file:  /home/brunozimmer/Documentos/ComparacaoMemorias/SRAM/512/Write/45nm_LP.pm
Reading file:  /home/brunozimmer/Documentos/ComparacaoMemorias/SRAM/512/Write/6TBitCell.spi
Reading file:  /home/brunozimmer/Documentos/ComparacaoMemorias/SRAM/512/Write/INV.spi
Reading file:  /home/brunozimmer/Documentos/ComparacaoMemorias/SRAM/512/Write/TRISTATE.spi
Reading file:  /home/brunozimmer/Documentos/ComparacaoMemorias/SRAM/512/Write/PreCharge.spi
Reading file:  /home/brunozimmer/Documentos/ComparacaoMemorias/SRAM/512/Write/PassTransistor.spi
Time for NDB Parsing: CPU = 213.244 ms, elapsed = 232.212 ms.
Time accumulated: CPU = 236.273 ms, elapsed = 232.22 ms.
Peak resident memory used = 67.5 Mbytes.


Warning from spectre during circuit read-in.
    WARNING (SFE-397): A primitive with name NMOS_VTL already exist, will override.
    WARNING (SFE-397): A primitive with name PMOS_VTL already exist, will override.
    WARNING (SFE-397): A primitive with name NMOS_VTL already exist, will override.
    WARNING (SFE-397): A primitive with name PMOS_VTL already exist, will override.
    WARNING (SFE-397): A primitive with name NMOS_VTL already exist, will override.
        Further occurrences of this warning will be suppressed.

Reading link:  /tools/cadence/SPECTRE161/tools.lnx86/spectre/etc/ahdl/discipline.h
Reading file:  /tools/cadence/SPECTRE161/tools.lnx86/spectre/etc/ahdl/disciplines.vams
Reading link:  /tools/cadence/SPECTRE161/tools.lnx86/spectre/etc/ahdl/constants.h
Reading file:  /tools/cadence/SPECTRE161/tools.lnx86/spectre/etc/ahdl/constants.vams
Time for Elaboration: CPU = 50.1 ms, elapsed = 50.1659 ms.
Time accumulated: CPU = 286.537 ms, elapsed = 282.57 ms.
Peak resident memory used = 79.3 Mbytes.


Time for EDB Visiting: CPU = 52.567 ms, elapsed = 52.578 ms.
Time accumulated: CPU = 339.306 ms, elapsed = 335.376 ms.
Peak resident memory used = 88.5 Mbytes.


Notice from spectre during topology check.
    Only one connection to node `Vvdd'.


Global user options:
             rawfmt = psfbin

Scoped user options:

Circuit inventory:
              nodes 1699
              bsim4 3160  
          capacitor 16    
            vsource 620   

Analysis and control statement inventory:
               tran 1     

Output statements:
             .probe 0     
           .measure 0     
               save 0     


Notice from spectre.
    5 warnings suppressed.

Time for parsing: CPU = 294.714 ms, elapsed = 354.997 ms.
Time accumulated: CPU = 634.151 ms, elapsed = 690.515 ms.
Peak resident memory used = 101 Mbytes.

~~~~~~~~~~~~~~~~~~~~~~
Pre-Simulation Summary
~~~~~~~~~~~~~~~~~~~~~~
~~~~~~~~~~~~~~~~~~~~~~

***************************************************
Transient Analysis `LeakWrt': time = (0 s -> 10 ns)
***************************************************

Notice from spectre during IC analysis, during transient analysis `LeakWrt', during task `MDLControl'.
    There are 4 IC nodes defined.
Notice from spectre during IC analysis, during transient analysis `LeakWrt', during task `MDLControl'.
    GminDC = 1 pS is large enough to noticeably affect the DC solution.
        dV(X516.1) = 23.2741 mV
        Use the `gmin_check' option to eliminate or expand this report.
    Bad pivoting is found during DC analysis. Option dc_pivot_check=yes is recommended for possible improvement of convergence.

DC simulation time: CPU = 687.377 ms, elapsed = 687.467 ms.

Notice from spectre during transient analysis `LeakWrt', during task `MDLControl'.
    No outputs were found. Loosening output filter criterion to `allpub'.


Opening the PSF file Cell.raw/LeakWrt.tran.tran ...
Important parameter values:
    start = 0 s
    outputstart = 0 s
    stop = 10 ns
    step = 10 ps
    maxstep = 200 ps
    ic = all
    useprevic = no
    skipdc = no
    reltol = 1e-03
    abstol(V) = 1 uV
    abstol(I) = 1 pA
    temp = 27 C
    tnom = 27 C
    tempeffects = all
    errpreset = moderate
    method = traponly
    lteratio = 3.5
    relref = sigglobal
    cmin = 0 F
    gmin = 1 pS


Warning from spectre during transient analysis `LeakWrt', during task `MDLControl'.
    WARNING (SFE-421): Undefined parameter name `Vvdd'.


Output and IC/nodeset summary:
                 save   619     (current)
                 save   1699    (voltage)
                 ic     4       

.....

Notice from spectre at time = 500.533 ps during transient analysis `LeakWrt', during task `MDLControl'.
    Found trapezoidal ringing on node X516.M_i_3:int_g.
Notice from spectre at time = 500.866 ps during transient analysis `LeakWrt', during task `MDLControl'.
    Found trapezoidal ringing on node X516.M_i_3:int_g.

........9

Notice from spectre at time = 1.00195 ns during transient analysis `LeakWrt', during task `MDLControl'.
    Found trapezoidal ringing on node X224.M_i_0:sbnode.

........9.....

Notice from spectre at time = 1.50021 ns during transient analysis `LeakWrt', during task `MDLControl'.
    Found trapezoidal ringing on node X516.M_i_1:int_b.
Notice from spectre at time = 1.50029 ns during transient analysis `LeakWrt', during task `MDLControl'.
    Found trapezoidal ringing on node X516.M_i_1:int_b.
        Further occurrences of this notice will be suppressed.

........9........8........7........6........5........4........3........2........1........0
Number of accepted tran steps =             267

Notice from spectre during transient analysis `LeakWrt', during task `MDLControl'.
    Trapezoidal ringing is detected during tran analysis.
        Please use method=trap for better results and performance.


Maximum value achieved for any signal of each quantity: 
V: V(X516.2) = 1.195 V
I: I(Vdd:p) = 15.17 mA
If your circuit contains signals of the same quantity that are vastly different in size (such as high voltage circuitry combined with low voltage control circuitry), you should consider specifying global option `bin_relref=yes'.

~~~~~~~~~~~~~~~~~~~~~~~~~~~~~~~~~
Post-Transient Simulation Summary
~~~~~~~~~~~~~~~~~~~~~~~~~~~~~~~~~
   -   To further speed up simulation, consider
          add ++aps on command line
~~~~~~~~~~~~~~~~~~~~~~~~~~~~~~~~~


During simulation, the CPU load for active processors is :
        Spectre  0 (5.0 %)       1 (99.1 %)      2 (2.4 %)       3 (2.1 %)
        Other   
Initial condition solution time: CPU = 687.45 ms, elapsed = 687.549 ms.
Intrinsic tran analysis time:    CPU = 8.75056 s, elapsed = 8.77534 s.
Total time required for tran analysis `LeakWrt': CPU = 9.72859 s, elapsed = 9.7537 s.
Time accumulated: CPU = 10.374 s, elapsed = 10.4555 s.
Peak resident memory used = 141 Mbytes.


Notice from spectre during task `MDLControl'.
    43 notices suppressed.


****************************************************
Transient Analysis `PowerWrt': time = (0 s -> 10 ns)
****************************************************

Notice from spectre during IC analysis, during transient analysis `PowerWrt', during task `MDLControl'.
    There are 4 IC nodes defined.
Notice from spectre during IC analysis, during transient analysis `PowerWrt', during task `MDLControl'.
    GminDC = 1 pS is large enough to noticeably affect the DC solution.
        dV(X516.1) = 23.2741 mV
        Use the `gmin_check' option to eliminate or expand this report.
    Bad pivoting is found during DC analysis. Option dc_pivot_check=yes is recommended for possible improvement of convergence.

DC simulation time: CPU = 529.88 ms, elapsed = 530.151 ms.

Notice from spectre during transient analysis `PowerWrt', during task `MDLControl'.
    No outputs were found. Loosening output filter criterion to `allpub'.


Opening the PSF file Cell.raw/PowerWrt.tran.tran ...
Important parameter values:
    start = 0 s
    outputstart = 0 s
    stop = 10 ns
    step = 10 ps
    maxstep = 200 ps
    ic = all
    useprevic = no
    skipdc = no
    reltol = 1e-03
    abstol(V) = 1 uV
    abstol(I) = 1 pA
    temp = 27 C
    tnom = 27 C
    tempeffects = all
    errpreset = moderate
    method = traponly
    lteratio = 3.5
    relref = sigglobal
    cmin = 0 F
    gmin = 1 pS


Warning from spectre during transient analysis `PowerWrt', during task `MDLControl'.
    WARNING (SFE-421): Undefined parameter name `Vvdd'.


Output and IC/nodeset summary:
                 save   619     (current)
                 save   1699    (voltage)
                 ic     4       

.....

Notice from spectre at time = 500.533 ps during transient analysis `PowerWrt', during task `MDLControl'.
    Found trapezoidal ringing on node X516.M_i_3:int_g.
Notice from spectre at time = 500.866 ps during transient analysis `PowerWrt', during task `MDLControl'.
    Found trapezoidal ringing on node X516.M_i_3:int_g.

........9

Notice from spectre at time = 1.00195 ns during transient analysis `PowerWrt', during task `MDLControl'.
    Found trapezoidal ringing on node X224.M_i_0:sbnode.

........9.....

Notice from spectre at time = 1.50021 ns during transient analysis `PowerWrt', during task `MDLControl'.
    Found trapezoidal ringing on node X516.M_i_1:int_b.
Notice from spectre at time = 1.50029 ns during transient analysis `PowerWrt', during task `MDLControl'.
    Found trapezoidal ringing on node X516.M_i_1:int_b.
        Further occurrences of this notice will be suppressed.

........9........8........7........6........5........4........3........2........1........0
Number of accepted tran steps =             267

Notice from spectre during transient analysis `PowerWrt', during task `MDLControl'.
    Trapezoidal ringing is detected during tran analysis.
        Please use method=trap for better results and performance.


Maximum value achieved for any signal of each quantity: 
V: V(X516.2) = 1.195 V
I: I(Vdd:p) = 15.17 mA
If your circuit contains signals of the same quantity that are vastly different in size (such as high voltage circuitry combined with low voltage control circuitry), you should consider specifying global option `bin_relref=yes'.

~~~~~~~~~~~~~~~~~~~~~~~~~~~~~~~~~
Post-Transient Simulation Summary
~~~~~~~~~~~~~~~~~~~~~~~~~~~~~~~~~
   -   To further speed up simulation, consider
          add ++aps on command line
~~~~~~~~~~~~~~~~~~~~~~~~~~~~~~~~~


During simulation, the CPU load for active processors is :
        Spectre  0 (5.3 %)       1 (99.3 %)      2 (3.0 %)       3 (2.9 %)
        Other   
Initial condition solution time: CPU = 529.942 ms, elapsed = 530.219 ms.
Intrinsic tran analysis time:    CPU = 8.37852 s, elapsed = 8.40418 s.
Total time required for tran analysis `PowerWrt': CPU = 9.16236 s, elapsed = 9.18843 s.
Time accumulated: CPU = 19.5521 s, elapsed = 19.6841 s.
Peak resident memory used = 141 Mbytes.


Notice from spectre during task `MDLControl'.
    43 notices suppressed.


Aggregate audit (4:45:24 PM, Mon Mar 22, 2021):
Time used: CPU = 19.6 s, elapsed = 19.8 s, util. = 99.1%.
Time spent in licensing: elapsed = 23.4 ms.
Peak memory used = 141 Mbytes.
Simulation started at: 4:45:05 PM, Mon Mar 22, 2021, ended at: 4:45:24 PM, Mon Mar 22, 2021, with elapsed time (wall clock): 19.8 s.
spectre completes with 0 errors, 7 warnings, and 24 notices.
