
Spectre (R) Circuit Simulator
Version 16.1.0.673.isr14 64bit -- 30 Mar 2018
Copyright (C) 1989-2018 Cadence Design Systems, Inc. All rights reserved worldwide. Cadence and Spectre are registered trademarks of Cadence Design Systems, Inc. All others are the property of their respective holders.

Includes RSA BSAFE(R) Cryptographic or Security Protocol Software from RSA Security, Inc.

User: brunozimmer   Host: itacolomi.lapsi   HostID: 7F0100   PID: 12636
Memory  available: 14.0577 GB  physical: 33.7036 GB
Linux   : CentOS Linux release 7.9.2009 (Core)
CPU Type: Intel(R) Xeon(R) CPU E3-1220 V2 @ 3.10GHz
        Socket: Processors [Frequency]
        0:       0 [2759.6],  1 [2803.5],  2 [2903.8],  3 [2891.1]
        
System load averages (1min, 5min, 15min) : 18.0 %, 12.2 %, 6.8 %


Simulating `Cell.scs' on itacolomi.lapsi at 8:40:31 AM, Mon Mar 29, 2021 (process id: 12636).
Current working directory: /home/brunozimmer/Documentos/ComparacaoMemorias/1T1MTJ/256-TG
Command line:
    /tools/cadence/SPECTRE161/tools.lnx86/bin/spectre -64 =mdl  \
        Results.mdl Cell.scs

Loading /tools/cadence/SPECTRE161/tools.lnx86/cmi/lib/64bit/5.0/libinfineon_sh.so ...
Loading /tools/cadence/SPECTRE161/tools.lnx86/cmi/lib/64bit/5.0/libphilips_o_sh.so ...
Loading /tools/cadence/SPECTRE161/tools.lnx86/cmi/lib/64bit/5.0/libphilips_sh.so ...
Loading /tools/cadence/SPECTRE161/tools.lnx86/cmi/lib/64bit/5.0/libsparam_sh.so ...
Loading /tools/cadence/SPECTRE161/tools.lnx86/cmi/lib/64bit/5.0/libstmodels_sh.so ...
Loading /tools/cadence/SPECTRE161/tools.lnx86/spectre/lib/64bit/mdl/libSpectreEH_sh.so ...

Warning from spectre.
    WARNING (MDL-1452): line 1, column 1: syntax error before or at: *
            unrecognised statement.

Reading file:  /home/brunozimmer/Documentos/ComparacaoMemorias/1T1MTJ/256-TG/Cell.scs
Reading file:  /tools/cadence/SPECTRE161/tools.lnx86/spectre/etc/configs/mapsubckt.cfg
Reading file:  /tools/cadence/SPECTRE161/tools.lnx86/spectre/etc/configs/spectre.cfg
Reading file:  /home/brunozimmer/Documentos/ComparacaoMemorias/1T1MTJ/256-TG/45nm_LP.pm
Reading file:  /home/brunozimmer/Documentos/ComparacaoMemorias/1T1MTJ/256-TG/TRANSGATE.spi
Reading file:  /home/brunozimmer/Documentos/ComparacaoMemorias/1T1MTJ/256-TG/1T1MBitCell.spi
Reading file:  /home/brunozimmer/Documentos/ComparacaoMemorias/1T1MTJ/256-TG/MTJT.spi
Time for NDB Parsing: CPU = 208.69 ms, elapsed = 224.527 ms.
Time accumulated: CPU = 231.345 ms, elapsed = 224.535 ms.
Peak resident memory used = 66 Mbytes.

Reading link:  /tools/cadence/SPECTRE161/tools.lnx86/spectre/etc/ahdl/discipline.h
Reading file:  /tools/cadence/SPECTRE161/tools.lnx86/spectre/etc/ahdl/disciplines.vams
Reading link:  /tools/cadence/SPECTRE161/tools.lnx86/spectre/etc/ahdl/constants.h
Reading file:  /tools/cadence/SPECTRE161/tools.lnx86/spectre/etc/ahdl/constants.vams
Existing shared object for module bsource_299dda is up to date.
Installed compiled interface for bsource_299dda.
Existing shared object for module bsource_c88c6a is up to date.
Installed compiled interface for bsource_c88c6a.
Existing shared object for module bsource_42ea24 is up to date.
Installed compiled interface for bsource_42ea24.
Existing shared object for module bsource_7b7e87 is up to date.
Installed compiled interface for bsource_7b7e87.
Existing shared object for module bsource_098211 is up to date.
Installed compiled interface for bsource_098211.
Existing shared object for module bsource_ad0f4a is up to date.
Installed compiled interface for bsource_ad0f4a.
Time for Elaboration: CPU = 72.764 ms, elapsed = 72.8469 ms.
Time accumulated: CPU = 304.252 ms, elapsed = 297.545 ms.
Peak resident memory used = 79.6 Mbytes.


Time for EDB Visiting: CPU = 97.887 ms, elapsed = 97.898 ms.
Time accumulated: CPU = 402.319 ms, elapsed = 395.643 ms.
Peak resident memory used = 87.3 Mbytes.


Global user options:
             rawfmt = psfbin

Scoped user options:

Circuit inventory:
              nodes 3995
              bsim4 448   
     bsource_7b7e87 256   
     bsource_42ea24 256   
     bsource_299dda 256   
     bsource_098211 256   
     bsource_ad0f4a 256   
     bsource_c88c6a 256   
          capacitor 1544  
           resistor 1792  
               vccs 256   
               vcvs 1024  
            vsource 571   

Analysis and control statement inventory:
               tran 1     

Output statements:
             .probe 0     
           .measure 0     
               save 0     

Time for parsing: CPU = 41.46 ms, elapsed = 92.4418 ms.
Time accumulated: CPU = 443.916 ms, elapsed = 488.237 ms.
Peak resident memory used = 94.6 Mbytes.

~~~~~~~~~~~~~~~~~~~~~~
Pre-Simulation Summary
~~~~~~~~~~~~~~~~~~~~~~
~~~~~~~~~~~~~~~~~~~~~~

++++++++++++++++
TpRead = (0.05n)
++++++++++++++++

Warning from spectre.
    WARNING (MDL-1101): line `824': MDL expression for identifier 'dummyCondVar' can not be evaluated due to previous errors.


++++++++++++++++
TpWrite = (0.7n)
++++++++++++++++

Warning from spectre.
    WARNING (MDL-1560): Error in search, check search condition validity at start value.
    WARNING (MDL-1101): line `838': MDL expression for identifier 'dummyCondVar' can not be evaluated due to previous errors.
    WARNING (MDL-1560): Error in search, check search condition validity at start value.


***************************************************
Transient Analysis `PowerRd': time = (0 s -> 10 ns)
***************************************************
Finding DC approximate solution failed. Try again with try_fast_op set to no.

Notice from spectre during IC analysis, during transient analysis `PowerRd', during task `MDLControl'.
    Bad pivoting is found during DC analysis. Option dc_pivot_check=yes is recommended for possible improvement of convergence.

DC simulation time: CPU = 1.07444 s, elapsed = 1.07454 s.

Notice from spectre during transient analysis `PowerRd', during task `MDLControl'.
    No outputs were found. Loosening output filter criterion to `allpub'.


Opening the PSF file Cell.raw/PowerRd.tran.tran ...
Important parameter values:
    start = 0 s
    outputstart = 0 s
    stop = 10 ns
    step = 10 ps
    maxstep = 200 ps
    ic = all
    useprevic = no
    skipdc = no
    reltol = 1e-03
    abstol(V) = 1 uV
    abstol(I) = 1 pA
    temp = 27 C
    tnom = 27 C
    tempeffects = all
    errpreset = moderate
    method = traponly
    lteratio = 3.5
    relref = sigglobal
    cmin = 0 F
    gmin = 1 pS


Output and IC/nodeset summary:
                 save   571     (current)
                 save   3995    (voltage)

..

Notice from spectre at time = 258.94 ps during transient analysis `PowerRd', during task `MDLControl'.
    Found trapezoidal ringing on node X112.M_i_1:int_b.

...

Notice from spectre at time = 297.728 ps during transient analysis `PowerRd', during task `MDLControl'.
    Found trapezoidal ringing on node X112.X1.eBiStable:p.
Notice from spectre at time = 310.629 ps during transient analysis `PowerRd', during task `MDLControl'.
    Found trapezoidal ringing on node X112.X1.eBiStable:p.
Notice from spectre at time = 326.269 ps during transient analysis `PowerRd', during task `MDLControl'.
    Found trapezoidal ringing on node X112.X1.eBiStable:p.
Notice from spectre at time = 344.465 ps during transient analysis `PowerRd', during task `MDLControl'.
    Found trapezoidal ringing on node X112.X1.eBiStable:p.
        Further occurrences of this notice will be suppressed.

........9........8........7........6........5........4........3........2........1........0
Number of accepted tran steps =             700

Notice from spectre during transient analysis `PowerRd', during task `MDLControl'.
    Trapezoidal ringing is detected during tran analysis.
        Please use method=trap for better results and performance.


Maximum value achieved for any signal of each quantity: 
V: V(X256.X1.nBiStable) = 10 V
I: I(X112.X1.eBiStable:p) = 19.1 A
If your circuit contains signals of the same quantity that are vastly different in size (such as high voltage circuitry combined with low voltage control circuitry), you should consider specifying global option `bin_relref=yes'.

~~~~~~~~~~~~~~~~~~~~~~~~~~~~~~~~~
Post-Transient Simulation Summary
~~~~~~~~~~~~~~~~~~~~~~~~~~~~~~~~~
   -   To further speed up simulation, consider
          add ++aps on command line
~~~~~~~~~~~~~~~~~~~~~~~~~~~~~~~~~


During simulation, the CPU load for active processors is :
        Spectre  0 (3.4 %)       1 (99.2 %)      2 (2.7 %)       3 (2.8 %)
        Other   
Initial condition solution time: CPU = 1.07456 s, elapsed = 1.07466 s.
Intrinsic tran analysis time:    CPU = 9.51566 s, elapsed = 9.53627 s.
Total time required for tran analysis `PowerRd': CPU = 10.6206 s, elapsed = 10.6415 s.
Time accumulated: CPU = 11.2077 s, elapsed = 11.273 s.
Peak resident memory used = 132 Mbytes.


Notice from spectre during task `MDLControl'.
    137 notices suppressed.


**************************************************
Transient Analysis `LeakRd': time = (0 s -> 10 ns)
**************************************************
Finding DC approximate solution failed. Try again with try_fast_op set to no.

Notice from spectre during IC analysis, during transient analysis `LeakRd', during task `MDLControl'.
    Bad pivoting is found during DC analysis. Option dc_pivot_check=yes is recommended for possible improvement of convergence.

DC simulation time: CPU = 992.119 ms, elapsed = 992.203 ms.

Notice from spectre during transient analysis `LeakRd', during task `MDLControl'.
    No outputs were found. Loosening output filter criterion to `allpub'.


Opening the PSF file Cell.raw/LeakRd.tran.tran ...
Important parameter values:
    start = 0 s
    outputstart = 0 s
    stop = 10 ns
    step = 10 ps
    maxstep = 200 ps
    ic = all
    useprevic = no
    skipdc = no
    reltol = 1e-03
    abstol(V) = 1 uV
    abstol(I) = 1 pA
    temp = 27 C
    tnom = 27 C
    tempeffects = all
    errpreset = moderate
    method = traponly
    lteratio = 3.5
    relref = sigglobal
    cmin = 0 F
    gmin = 1 pS


Output and IC/nodeset summary:
                 save   571     (current)
                 save   3995    (voltage)

..

Notice from spectre at time = 258.94 ps during transient analysis `LeakRd', during task `MDLControl'.
    Found trapezoidal ringing on node X112.M_i_1:int_b.

...

Notice from spectre at time = 297.728 ps during transient analysis `LeakRd', during task `MDLControl'.
    Found trapezoidal ringing on node X112.X1.eBiStable:p.
Notice from spectre at time = 310.629 ps during transient analysis `LeakRd', during task `MDLControl'.
    Found trapezoidal ringing on node X112.X1.eBiStable:p.
Notice from spectre at time = 326.269 ps during transient analysis `LeakRd', during task `MDLControl'.
    Found trapezoidal ringing on node X112.X1.eBiStable:p.
Notice from spectre at time = 344.465 ps during transient analysis `LeakRd', during task `MDLControl'.
    Found trapezoidal ringing on node X112.X1.eBiStable:p.
        Further occurrences of this notice will be suppressed.

........9........8........7........6........5........4........3........2........1........0
Number of accepted tran steps =             700

Notice from spectre during transient analysis `LeakRd', during task `MDLControl'.
    Trapezoidal ringing is detected during tran analysis.
        Please use method=trap for better results and performance.


Maximum value achieved for any signal of each quantity: 
V: V(X256.X1.nBiStable) = 10 V
I: I(X112.X1.eBiStable:p) = 19.1 A
If your circuit contains signals of the same quantity that are vastly different in size (such as high voltage circuitry combined with low voltage control circuitry), you should consider specifying global option `bin_relref=yes'.

~~~~~~~~~~~~~~~~~~~~~~~~~~~~~~~~~
Post-Transient Simulation Summary
~~~~~~~~~~~~~~~~~~~~~~~~~~~~~~~~~
   -   To further speed up simulation, consider
          add ++aps on command line
~~~~~~~~~~~~~~~~~~~~~~~~~~~~~~~~~


During simulation, the CPU load for active processors is :
        Spectre  0 (3.2 %)       1 (99.4 %)      2 (2.8 %)       3 (2.8 %)
        Other   
Initial condition solution time: CPU = 992.21 ms, elapsed = 992.301 ms.
Intrinsic tran analysis time:    CPU = 10.0321 s, elapsed = 10.0557 s.
Total time required for tran analysis `LeakRd': CPU = 11.0535 s, elapsed = 11.0773 s.
Time accumulated: CPU = 22.2741 s, elapsed = 22.3928 s.
Peak resident memory used = 133 Mbytes.


Notice from spectre during task `MDLControl'.
    137 notices suppressed.


****************************************************
Transient Analysis `PowerWrt': time = (0 s -> 10 ns)
****************************************************
Finding DC approximate solution failed. Try again with try_fast_op set to no.

Notice from spectre during IC analysis, during transient analysis `PowerWrt', during task `MDLControl'.
    Bad pivoting is found during DC analysis. Option dc_pivot_check=yes is recommended for possible improvement of convergence.

DC simulation time: CPU = 1 s, elapsed = 1.00009 s.

Notice from spectre during transient analysis `PowerWrt', during task `MDLControl'.
    No outputs were found. Loosening output filter criterion to `allpub'.


Opening the PSF file Cell.raw/PowerWrt.tran.tran ...
Important parameter values:
    start = 0 s
    outputstart = 0 s
    stop = 10 ns
    step = 10 ps
    maxstep = 200 ps
    ic = all
    useprevic = no
    skipdc = no
    reltol = 1e-03
    abstol(V) = 1 uV
    abstol(I) = 1 pA
    temp = 27 C
    tnom = 27 C
    tempeffects = all
    errpreset = moderate
    method = traponly
    lteratio = 3.5
    relref = sigglobal
    cmin = 0 F
    gmin = 1 pS


Output and IC/nodeset summary:
                 save   571     (current)
                 save   3995    (voltage)

..

Notice from spectre at time = 258.94 ps during transient analysis `PowerWrt', during task `MDLControl'.
    Found trapezoidal ringing on node X112.M_i_1:int_b.

...

Notice from spectre at time = 297.728 ps during transient analysis `PowerWrt', during task `MDLControl'.
    Found trapezoidal ringing on node X112.X1.eBiStable:p.
Notice from spectre at time = 310.629 ps during transient analysis `PowerWrt', during task `MDLControl'.
    Found trapezoidal ringing on node X112.X1.eBiStable:p.
Notice from spectre at time = 326.269 ps during transient analysis `PowerWrt', during task `MDLControl'.
    Found trapezoidal ringing on node X112.X1.eBiStable:p.
Notice from spectre at time = 344.465 ps during transient analysis `PowerWrt', during task `MDLControl'.
    Found trapezoidal ringing on node X112.X1.eBiStable:p.
        Further occurrences of this notice will be suppressed.

........9........8........7........6........5........4........3........2........1........0
Number of accepted tran steps =             700

Notice from spectre during transient analysis `PowerWrt', during task `MDLControl'.
    Trapezoidal ringing is detected during tran analysis.
        Please use method=trap for better results and performance.


Maximum value achieved for any signal of each quantity: 
V: V(X256.X1.nBiStable) = 10 V
I: I(X112.X1.eBiStable:p) = 19.1 A
If your circuit contains signals of the same quantity that are vastly different in size (such as high voltage circuitry combined with low voltage control circuitry), you should consider specifying global option `bin_relref=yes'.

~~~~~~~~~~~~~~~~~~~~~~~~~~~~~~~~~
Post-Transient Simulation Summary
~~~~~~~~~~~~~~~~~~~~~~~~~~~~~~~~~
   -   To further speed up simulation, consider
          add ++aps on command line
~~~~~~~~~~~~~~~~~~~~~~~~~~~~~~~~~


During simulation, the CPU load for active processors is :
        Spectre  0 (4.4 %)       1 (99.4 %)      2 (3.3 %)       3 (3.2 %)
        Other   
Initial condition solution time: CPU = 1.00016 s, elapsed = 1.00026 s.
Intrinsic tran analysis time:    CPU = 10.1578 s, elapsed = 10.1864 s.
Total time required for tran analysis `PowerWrt': CPU = 11.1784 s, elapsed = 11.2072 s.
Time accumulated: CPU = 33.4668 s, elapsed = 33.6395 s.
Peak resident memory used = 133 Mbytes.


Notice from spectre during task `MDLControl'.
    137 notices suppressed.


***************************************************
Transient Analysis `LeakWrt': time = (0 s -> 10 ns)
***************************************************
Finding DC approximate solution failed. Try again with try_fast_op set to no.

Notice from spectre during IC analysis, during transient analysis `LeakWrt', during task `MDLControl'.
    Bad pivoting is found during DC analysis. Option dc_pivot_check=yes is recommended for possible improvement of convergence.

DC simulation time: CPU = 998.077 ms, elapsed = 998.165 ms.

Notice from spectre during transient analysis `LeakWrt', during task `MDLControl'.
    No outputs were found. Loosening output filter criterion to `allpub'.


Opening the PSF file Cell.raw/LeakWrt.tran.tran ...
Important parameter values:
    start = 0 s
    outputstart = 0 s
    stop = 10 ns
    step = 10 ps
    maxstep = 200 ps
    ic = all
    useprevic = no
    skipdc = no
    reltol = 1e-03
    abstol(V) = 1 uV
    abstol(I) = 1 pA
    temp = 27 C
    tnom = 27 C
    tempeffects = all
    errpreset = moderate
    method = traponly
    lteratio = 3.5
    relref = sigglobal
    cmin = 0 F
    gmin = 1 pS


Output and IC/nodeset summary:
                 save   571     (current)
                 save   3995    (voltage)

..

Notice from spectre at time = 258.94 ps during transient analysis `LeakWrt', during task `MDLControl'.
    Found trapezoidal ringing on node X112.M_i_1:int_b.

...

Notice from spectre at time = 297.728 ps during transient analysis `LeakWrt', during task `MDLControl'.
    Found trapezoidal ringing on node X112.X1.eBiStable:p.
Notice from spectre at time = 310.629 ps during transient analysis `LeakWrt', during task `MDLControl'.
    Found trapezoidal ringing on node X112.X1.eBiStable:p.
Notice from spectre at time = 326.269 ps during transient analysis `LeakWrt', during task `MDLControl'.
    Found trapezoidal ringing on node X112.X1.eBiStable:p.
Notice from spectre at time = 344.465 ps during transient analysis `LeakWrt', during task `MDLControl'.
    Found trapezoidal ringing on node X112.X1.eBiStable:p.
        Further occurrences of this notice will be suppressed.

........9........8........7........6........5........4........3........2........1........0
Number of accepted tran steps =             700

Notice from spectre during transient analysis `LeakWrt', during task `MDLControl'.
    Trapezoidal ringing is detected during tran analysis.
        Please use method=trap for better results and performance.


Maximum value achieved for any signal of each quantity: 
V: V(X256.X1.nBiStable) = 10 V
I: I(X112.X1.eBiStable:p) = 19.1 A
If your circuit contains signals of the same quantity that are vastly different in size (such as high voltage circuitry combined with low voltage control circuitry), you should consider specifying global option `bin_relref=yes'.

~~~~~~~~~~~~~~~~~~~~~~~~~~~~~~~~~
Post-Transient Simulation Summary
~~~~~~~~~~~~~~~~~~~~~~~~~~~~~~~~~
   -   To further speed up simulation, consider
          add ++aps on command line
~~~~~~~~~~~~~~~~~~~~~~~~~~~~~~~~~


During simulation, the CPU load for active processors is :
        Spectre  0 (4.1 %)       1 (99.4 %)      2 (3.2 %)       3 (3.2 %)
        Other   
Initial condition solution time: CPU = 998.248 ms, elapsed = 998.343 ms.
Intrinsic tran analysis time:    CPU = 10.0998 s, elapsed = 10.1336 s.
Total time required for tran analysis `LeakWrt': CPU = 11.1277 s, elapsed = 11.1616 s.
Time accumulated: CPU = 44.6082 s, elapsed = 44.8421 s.
Peak resident memory used = 133 Mbytes.


Notice from spectre during task `MDLControl'.
    137 notices suppressed.


**********************
DC Analysis `LeakStat'
**********************

Notice from spectre during DC analysis `LeakStat', during task `MDLControl'.
    No outputs were found. Loosening output filter criterion to `allpub'.

Finding DC approximate solution failed. Try again with try_fast_op set to no.

Opening the PSF file Cell.raw/LeakStat.dc ...
Important parameter values:
    reltol = 1e-03
    abstol(V) = 1 uV
    abstol(I) = 1 pA
    temp = 27 C
    tnom = 27 C
    tempeffects = all
    gmindc = 1 pS

Notice from spectre during DC analysis `LeakStat', during task `MDLControl'.
    Bad pivoting is found during DC analysis. Option dc_pivot_check=yes is recommended for possible improvement of convergence.


Maximum value achieved for any signal of each quantity: 
V: V(X256.X1.nRVFit) = 1.8 V
I: I(Vvdd:p) = 16 uA

Notice from spectre during info, during DC analysis `LeakStat', during task `MDLControl'.
    No outputs were found. Loosening output filter criterion to `allpub'.

***************************************
Operating-Point information `LeakStat':
***************************************
Operating point computed in DC analysis `LeakStat' at T = 27 C.

    V(BL1) = 295.288 mV
    V(BL1T) = 0 V
    V(BL2) = 295.288 mV
    V(BL2T) = 0 V
    V(BL3) = 295.288 mV
    V(BL3T) = 0 V
    V(BL4) = 454.374 nV
    V(BL4T) = 0 V
    V(BL5) = 295.288 mV
    V(BL5T) = 0 V
    V(BL6) = 295.288 mV
    V(BL6T) = 0 V
    V(BL7) = 295.288 mV
    V(BL7T) = 0 V
    V(BL8) = 295.288 mV
    V(BL8T) = 0 V
    V(ENBl1) = 0 V
    V(ENBl2) = 0 V
    V(ENBl3) = 0 V
    V(ENBl4) = 1.6 V
    V(ENBl5) = 0 V
    V(ENBl6) = 0 V
    V(ENBl7) = 0 V
    V(ENBl8) = 0 V
    V(ENWl) = 0 V
    V(ENWl1) = 1.6 V
    V(NM1) = 295.288 mV
    V(NM2) = 295.288 mV
    V(NM3) = 295.288 mV
    V(NM4) = 295.288 mV
    V(NM5) = 295.288 mV
    V(NM6) = 295.288 mV
    V(NM7) = 295.288 mV
    V(NM8) = 295.288 mV
    V(NM9) = 295.288 mV
    V(NM10) = 295.288 mV
    V(NM11) = 295.288 mV
    V(NM12) = 295.288 mV
    V(NM13) = 295.288 mV
    V(NM14) = 295.288 mV
    V(NM15) = 295.288 mV
    V(NM16) = 295.288 mV
    V(NM17) = 295.288 mV
    V(NM18) = 295.288 mV
    V(NM19) = 295.288 mV
    V(NM20) = 295.288 mV
    V(NM21) = 295.288 mV
    V(NM22) = 295.288 mV
    V(NM23) = 295.288 mV
    V(NM24) = 295.288 mV
    V(NM25) = 295.288 mV
    V(NM26) = 295.288 mV
    V(NM27) = 295.288 mV
    V(NM28) = 295.288 mV
    V(NM29) = 295.288 mV
    V(NM30) = 295.288 mV
    V(NM31) = 295.288 mV
    V(NM32) = 295.288 mV
    V(NM33) = 295.288 mV
    V(NM34) = 295.288 mV
    V(NM35) = 295.288 mV
    V(NM36) = 295.288 mV
    V(NM37) = 295.288 mV
    V(NM38) = 295.288 mV
    V(NM39) = 295.288 mV
    V(NM40) = 295.288 mV
    V(NM41) = 295.288 mV
    V(NM42) = 295.288 mV
    V(NM43) = 295.288 mV
    V(NM44) = 295.288 mV
    V(NM45) = 295.288 mV
    V(NM46) = 295.288 mV
    V(NM47) = 295.288 mV
    V(NM48) = 295.288 mV
    V(NM49) = 295.288 mV
    V(NM50) = 295.288 mV
    V(NM51) = 295.288 mV
    V(NM52) = 295.288 mV
    V(NM53) = 295.288 mV
    V(NM54) = 295.288 mV
    V(NM55) = 295.288 mV
    V(NM56) = 295.288 mV
    V(NM57) = 295.288 mV
    V(NM58) = 295.288 mV
    V(NM59) = 295.288 mV
    V(NM60) = 295.288 mV
    V(NM61) = 295.288 mV
    V(NM62) = 295.288 mV
    V(NM63) = 295.288 mV
    V(NM64) = 295.288 mV
    V(NM65) = 295.288 mV
    V(NM66) = 295.288 mV
    V(NM67) = 295.288 mV
    V(NM68) = 295.288 mV
    V(NM69) = 295.288 mV
    V(NM70) = 295.288 mV
    V(NM71) = 295.288 mV
    V(NM72) = 295.288 mV
    V(NM73) = 295.288 mV
    V(NM74) = 295.288 mV
    V(NM75) = 295.288 mV
    V(NM76) = 295.288 mV
    V(NM77) = 295.288 mV
    V(NM78) = 295.288 mV
    V(NM79) = 295.288 mV
    V(NM80) = 295.288 mV
    V(NM81) = 295.288 mV
    V(NM82) = 295.288 mV
    V(NM83) = 295.288 mV
    V(NM84) = 295.288 mV
    V(NM85) = 295.288 mV
    V(NM86) = 295.288 mV
    V(NM87) = 295.288 mV
    V(NM88) = 295.288 mV
    V(NM89) = 295.288 mV
    V(NM90) = 295.288 mV
    V(NM91) = 295.288 mV
    V(NM92) = 295.288 mV
    V(NM93) = 295.288 mV
    V(NM94) = 295.288 mV
    V(NM95) = 295.288 mV
    V(NM96) = 295.288 mV
    V(NM97) = 454.374 nV
    V(NM98) = 454.374 nV
    V(NM99) = 454.374 nV
    V(NM100) = 454.374 nV
    V(NM101) = 454.374 nV
    V(NM102) = 454.374 nV
    V(NM103) = 454.374 nV
    V(NM104) = 454.374 nV
    V(NM105) = 454.374 nV
    V(NM106) = 454.374 nV
    V(NM107) = 454.374 nV
    V(NM108) = 454.374 nV
    V(NM109) = 454.374 nV
    V(NM110) = 454.374 nV
    V(NM111) = 454.374 nV
    V(NM112) = 454.374 nV
    V(NM113) = 454.374 nV
    V(NM114) = 454.374 nV
    V(NM115) = 454.374 nV
    V(NM116) = 454.374 nV
    V(NM117) = 454.374 nV
    V(NM118) = 454.374 nV
    V(NM119) = 454.374 nV
    V(NM120) = 454.374 nV
    V(NM121) = 454.374 nV
    V(NM122) = 454.374 nV
    V(NM123) = 454.374 nV
    V(NM124) = 454.374 nV
    V(NM125) = 454.374 nV
    V(NM126) = 454.374 nV
    V(NM127) = 454.374 nV
    V(NM128) = 454.374 nV
    V(NM129) = 295.288 mV
    V(NM130) = 295.288 mV
    V(NM131) = 295.288 mV
    V(NM132) = 295.288 mV
    V(NM133) = 295.288 mV
    V(NM134) = 295.288 mV
    V(NM135) = 295.288 mV
    V(NM136) = 295.288 mV
    V(NM137) = 295.288 mV
    V(NM138) = 295.288 mV
    V(NM139) = 295.288 mV
    V(NM140) = 295.288 mV
    V(NM141) = 295.288 mV
    V(NM142) = 295.288 mV
    V(NM143) = 295.288 mV
    V(NM144) = 295.288 mV
    V(NM145) = 295.288 mV
    V(NM146) = 295.288 mV
    V(NM147) = 295.288 mV
    V(NM148) = 295.288 mV
    V(NM149) = 295.288 mV
    V(NM150) = 295.288 mV
    V(NM151) = 295.288 mV
    V(NM152) = 295.288 mV
    V(NM153) = 295.288 mV
    V(NM154) = 295.288 mV
    V(NM155) = 295.288 mV
    V(NM156) = 295.288 mV
    V(NM157) = 295.288 mV
    V(NM158) = 295.288 mV
    V(NM159) = 295.288 mV
    V(NM160) = 295.288 mV
    V(NM161) = 295.288 mV
    V(NM162) = 295.288 mV
    V(NM163) = 295.288 mV
    V(NM164) = 295.288 mV
    V(NM165) = 295.288 mV
    V(NM166) = 295.288 mV
    V(NM167) = 295.288 mV
    V(NM168) = 295.288 mV
    V(NM169) = 295.288 mV
    V(NM170) = 295.288 mV
    V(NM171) = 295.288 mV
    V(NM172) = 295.288 mV
    V(NM173) = 295.288 mV
    V(NM174) = 295.288 mV
    V(NM175) = 295.288 mV
    V(NM176) = 295.288 mV
    V(NM177) = 295.288 mV
    V(NM178) = 295.288 mV
    V(NM179) = 295.288 mV
    V(NM180) = 295.288 mV
    V(NM181) = 295.288 mV
    V(NM182) = 295.288 mV
    V(NM183) = 295.288 mV
    V(NM184) = 295.288 mV
    V(NM185) = 295.288 mV
    V(NM186) = 295.288 mV
    V(NM187) = 295.288 mV
    V(NM188) = 295.288 mV
    V(NM189) = 295.288 mV
    V(NM190) = 295.288 mV
    V(NM191) = 295.288 mV
    V(NM192) = 295.288 mV
    V(NM193) = 295.288 mV
    V(NM194) = 295.288 mV
    V(NM195) = 295.288 mV
    V(NM196) = 295.288 mV
    V(NM197) = 295.288 mV
    V(NM198) = 295.288 mV
    V(NM199) = 295.288 mV
    V(NM200) = 295.288 mV
    V(NM201) = 295.288 mV
    V(NM202) = 295.288 mV
    V(NM203) = 295.288 mV
    V(NM204) = 295.288 mV
    V(NM205) = 295.288 mV
    V(NM206) = 295.288 mV
    V(NM207) = 295.288 mV
    V(NM208) = 295.288 mV
    V(NM209) = 295.288 mV
    V(NM210) = 295.288 mV
    V(NM211) = 295.288 mV
    V(NM212) = 295.288 mV
    V(NM213) = 295.288 mV
    V(NM214) = 295.288 mV
    V(NM215) = 295.288 mV
    V(NM216) = 295.288 mV
    V(NM217) = 295.288 mV
    V(NM218) = 295.288 mV
    V(NM219) = 295.288 mV
    V(NM220) = 295.288 mV
    V(NM221) = 295.288 mV
    V(NM222) = 295.288 mV
    V(NM223) = 295.288 mV
    V(NM224) = 295.288 mV
    V(NM225) = 295.288 mV
    V(NM226) = 295.288 mV
    V(NM227) = 295.288 mV
    V(NM228) = 295.288 mV
    V(NM229) = 295.288 mV
    V(NM230) = 295.288 mV
    V(NM231) = 295.288 mV
    V(NM232) = 295.288 mV
    V(NM233) = 295.288 mV
    V(NM234) = 295.288 mV
    V(NM235) = 295.288 mV
    V(NM236) = 295.288 mV
    V(NM237) = 295.288 mV
    V(NM238) = 295.288 mV
    V(NM239) = 295.288 mV
    V(NM240) = 295.288 mV
    V(NM241) = 295.288 mV
    V(NM242) = 295.288 mV
    V(NM243) = 295.288 mV
    V(NM244) = 295.288 mV
    V(NM245) = 295.288 mV
    V(NM246) = 295.288 mV
    V(NM247) = 295.288 mV
    V(NM248) = 295.288 mV
    V(NM249) = 295.288 mV
    V(NM250) = 295.288 mV
    V(NM251) = 295.288 mV
    V(NM252) = 295.288 mV
    V(NM253) = 295.288 mV
    V(NM254) = 295.288 mV
    V(NM255) = 295.288 mV
    V(NM256) = 295.288 mV
    V(SL1) = 295.288 mV
    V(SL1T) = 0 V
    V(SL2) = 295.288 mV
    V(SL2T) = 0 V
    V(SL3) = 295.288 mV
    V(SL3T) = 0 V
    V(SL4) = 678.828 nV
    V(SL4T) = 0 V
    V(SL5) = 295.288 mV
    V(SL5T) = 0 V
    V(SL6) = 295.288 mV
    V(SL6T) = 0 V
    V(SL7) = 295.288 mV
    V(SL7T) = 0 V
    V(SL8) = 295.288 mV
    V(SL8T) = 0 V
    I(Vbl1:p) = 535.001 nA
    I(Vbl1en:p) = 9.8758 nA
    I(Vbl2:p) = 535.001 nA
    I(Vbl2en:p) = 9.8758 nA
    I(Vbl3:p) = 535.001 nA
    I(Vbl3en:p) = 9.8758 nA
    I(Vbl4:p) = 35.0158 nA
    I(Vbl4en:p) = -137.531 nA
    I(Vbl5:p) = 535.001 nA
    I(Vbl5en:p) = 9.8758 nA
    I(Vbl6:p) = 535.001 nA
    I(Vbl6en:p) = 9.8758 nA
    I(Vbl7:p) = 535.001 nA
    I(Vbl7en:p) = 9.8758 nA
    I(Vbl8:p) = 535.001 nA
    I(Vbl8en:p) = 9.8758 nA
    V(Vdd) = 1.6 V
    I(Vsl1:p) = 535.001 nA
    I(Vsl2:p) = 535.001 nA
    I(Vsl3:p) = 535.001 nA
    I(Vsl4:p) = 43.6644 nA
    I(Vsl5:p) = 535.001 nA
    I(Vsl6:p) = 535.001 nA
    I(Vsl7:p) = 535.001 nA
    I(Vsl8:p) = 535.001 nA
    I(Vtest1:p) = -47.0171e-21 A
    I(Vtest2:p) = -47.0171e-21 A
    I(Vtest3:p) = -47.0171e-21 A
    I(Vtest4:p) = -47.0171e-21 A
    I(Vtest5:p) = -47.0171e-21 A
    I(Vtest6:p) = -47.0171e-21 A
    I(Vtest7:p) = -47.0171e-21 A
    I(Vtest8:p) = -47.0171e-21 A
    I(Vtest9:p) = -47.0171e-21 A
    I(Vtest10:p) = -47.0171e-21 A
    I(Vtest11:p) = -47.0171e-21 A
    I(Vtest12:p) = -47.0171e-21 A
    I(Vtest13:p) = -47.0171e-21 A
    I(Vtest14:p) = -47.0171e-21 A
    I(Vtest15:p) = -47.0171e-21 A
    I(Vtest16:p) = -40.3966 fA
    I(Vtest17:p) = -47.0171e-21 A
    I(Vtest18:p) = -47.0171e-21 A
    I(Vtest19:p) = -47.0171e-21 A
    I(Vtest20:p) = -47.0171e-21 A
    I(Vtest21:p) = -47.0171e-21 A
    I(Vtest22:p) = -47.0171e-21 A
    I(Vtest23:p) = -47.0171e-21 A
    I(Vtest24:p) = -47.0171e-21 A
    I(Vtest25:p) = -47.0171e-21 A
    I(Vtest26:p) = -47.0171e-21 A
    I(Vtest27:p) = -47.0171e-21 A
    I(Vtest28:p) = -47.0171e-21 A
    I(Vtest29:p) = -47.0171e-21 A
    I(Vtest30:p) = -47.0171e-21 A
    I(Vtest31:p) = -47.0171e-21 A
    I(Vtest32:p) = -47.0171e-21 A
    I(Vtest33:p) = -47.0171e-21 A
    I(Vtest34:p) = -47.0171e-21 A
    I(Vtest35:p) = -47.0171e-21 A
    I(Vtest36:p) = -47.0171e-21 A
    I(Vtest37:p) = -47.0171e-21 A
    I(Vtest38:p) = -47.0171e-21 A
    I(Vtest39:p) = -47.0171e-21 A
    I(Vtest40:p) = -47.0171e-21 A
    I(Vtest41:p) = -47.0171e-21 A
    I(Vtest42:p) = -47.0171e-21 A
    I(Vtest43:p) = -47.0171e-21 A
    I(Vtest44:p) = -47.0171e-21 A
    I(Vtest45:p) = -47.0171e-21 A
    I(Vtest46:p) = -47.0171e-21 A
    I(Vtest47:p) = -47.0171e-21 A
    I(Vtest48:p) = -40.3966 fA
    I(Vtest49:p) = -47.0171e-21 A
    I(Vtest50:p) = -47.0171e-21 A
    I(Vtest51:p) = -47.0171e-21 A
    I(Vtest52:p) = -47.0171e-21 A
    I(Vtest53:p) = -47.0171e-21 A
    I(Vtest54:p) = -47.0171e-21 A
    I(Vtest55:p) = -47.0171e-21 A
    I(Vtest56:p) = -47.0171e-21 A
    I(Vtest57:p) = -47.0171e-21 A
    I(Vtest58:p) = -47.0171e-21 A
    I(Vtest59:p) = -47.0171e-21 A
    I(Vtest60:p) = -47.0171e-21 A
    I(Vtest61:p) = -47.0171e-21 A
    I(Vtest62:p) = -47.0171e-21 A
    I(Vtest63:p) = -47.0171e-21 A
    I(Vtest64:p) = -47.0171e-21 A
    I(Vtest65:p) = -47.0171e-21 A
    I(Vtest66:p) = -47.0171e-21 A
    I(Vtest67:p) = -47.0171e-21 A
    I(Vtest68:p) = -47.0171e-21 A
    I(Vtest69:p) = -47.0171e-21 A
    I(Vtest70:p) = -47.0171e-21 A
    I(Vtest71:p) = -47.0171e-21 A
    I(Vtest72:p) = -47.0171e-21 A
    I(Vtest73:p) = -47.0171e-21 A
    I(Vtest74:p) = -47.0171e-21 A
    I(Vtest75:p) = -47.0171e-21 A
    I(Vtest76:p) = -47.0171e-21 A
    I(Vtest77:p) = -47.0171e-21 A
    I(Vtest78:p) = -47.0171e-21 A
    I(Vtest79:p) = -47.0171e-21 A
    I(Vtest80:p) = -40.3967 fA
    I(Vtest81:p) = -47.0171e-21 A
    I(Vtest82:p) = -47.0171e-21 A
    I(Vtest83:p) = -47.0171e-21 A
    I(Vtest84:p) = -47.0171e-21 A
    I(Vtest85:p) = -47.0171e-21 A
    I(Vtest86:p) = -47.0171e-21 A
    I(Vtest87:p) = -47.0171e-21 A
    I(Vtest88:p) = -47.0171e-21 A
    I(Vtest89:p) = -47.0171e-21 A
    I(Vtest90:p) = -47.0171e-21 A
    I(Vtest91:p) = -47.0171e-21 A
    I(Vtest92:p) = -47.0171e-21 A
    I(Vtest93:p) = -47.0171e-21 A
    I(Vtest94:p) = -47.0171e-21 A
    I(Vtest95:p) = -47.0171e-21 A
    I(Vtest96:p) = -47.0171e-21 A
    I(Vtest97:p) = -536.415e-21 A
    I(Vtest98:p) = -536.415e-21 A
    I(Vtest99:p) = -536.415e-21 A
    I(Vtest100:p) = -536.415e-21 A
    I(Vtest101:p) = -536.415e-21 A
    I(Vtest102:p) = -536.415e-21 A
    I(Vtest103:p) = -536.415e-21 A
    I(Vtest104:p) = -536.415e-21 A
    I(Vtest105:p) = -536.415e-21 A
    I(Vtest106:p) = -536.415e-21 A
    I(Vtest107:p) = -536.415e-21 A
    I(Vtest108:p) = -536.415e-21 A
    I(Vtest109:p) = -536.415e-21 A
    I(Vtest110:p) = -536.415e-21 A
    I(Vtest111:p) = -536.415e-21 A
    I(Vtest112:p) = -191.991 aA
    I(Vtest113:p) = -536.415e-21 A
    I(Vtest114:p) = -536.415e-21 A
    I(Vtest115:p) = -536.415e-21 A
    I(Vtest116:p) = -536.415e-21 A
    I(Vtest117:p) = -536.415e-21 A
    I(Vtest118:p) = -536.415e-21 A
    I(Vtest119:p) = -536.415e-21 A
    I(Vtest120:p) = -536.415e-21 A
    I(Vtest121:p) = -536.415e-21 A
    I(Vtest122:p) = -536.415e-21 A
    I(Vtest123:p) = -536.415e-21 A
    I(Vtest124:p) = -536.415e-21 A
    I(Vtest125:p) = -536.415e-21 A
    I(Vtest126:p) = -536.415e-21 A
    I(Vtest127:p) = -536.415e-21 A
    I(Vtest128:p) = -536.415e-21 A
    I(Vtest129:p) = -47.0171e-21 A
    I(Vtest130:p) = -47.0171e-21 A
    I(Vtest131:p) = -47.0171e-21 A
    I(Vtest132:p) = -47.0171e-21 A
    I(Vtest133:p) = -47.0171e-21 A
    I(Vtest134:p) = -47.0171e-21 A
    I(Vtest135:p) = -47.0171e-21 A
    I(Vtest136:p) = -47.0171e-21 A
    I(Vtest137:p) = -47.0171e-21 A
    I(Vtest138:p) = -47.0171e-21 A
    I(Vtest139:p) = -47.0171e-21 A
    I(Vtest140:p) = -47.0171e-21 A
    I(Vtest141:p) = -47.0171e-21 A
    I(Vtest142:p) = -47.0171e-21 A
    I(Vtest143:p) = -47.0171e-21 A
    I(Vtest144:p) = -40.3966 fA
    I(Vtest145:p) = -47.0171e-21 A
    I(Vtest146:p) = -47.0171e-21 A
    I(Vtest147:p) = -47.0171e-21 A
    I(Vtest148:p) = -47.0171e-21 A
    I(Vtest149:p) = -47.0171e-21 A
    I(Vtest150:p) = -47.0171e-21 A
    I(Vtest151:p) = -47.0171e-21 A
    I(Vtest152:p) = -47.0171e-21 A
    I(Vtest153:p) = -47.0171e-21 A
    I(Vtest154:p) = -47.0171e-21 A
    I(Vtest155:p) = -47.0171e-21 A
    I(Vtest156:p) = -47.0171e-21 A
    I(Vtest157:p) = -47.0171e-21 A
    I(Vtest158:p) = -47.0171e-21 A
    I(Vtest159:p) = -47.0171e-21 A
    I(Vtest160:p) = -47.0171e-21 A
    I(Vtest161:p) = -47.0171e-21 A
    I(Vtest162:p) = -47.0171e-21 A
    I(Vtest163:p) = -47.0171e-21 A
    I(Vtest164:p) = -47.0171e-21 A
    I(Vtest165:p) = -47.0171e-21 A
    I(Vtest166:p) = -47.0171e-21 A
    I(Vtest167:p) = -47.0171e-21 A
    I(Vtest168:p) = -47.0171e-21 A
    I(Vtest169:p) = -47.0171e-21 A
    I(Vtest170:p) = -47.017e-21 A
    I(Vtest171:p) = -47.0171e-21 A
    I(Vtest172:p) = -47.0171e-21 A
    I(Vtest173:p) = -47.0171e-21 A
    I(Vtest174:p) = -47.0171e-21 A
    I(Vtest175:p) = -47.0171e-21 A
    I(Vtest176:p) = -40.3966 fA
    I(Vtest177:p) = -47.0171e-21 A
    I(Vtest178:p) = -47.0171e-21 A
    I(Vtest179:p) = -47.0171e-21 A
    I(Vtest180:p) = -47.0171e-21 A
    I(Vtest181:p) = -47.0171e-21 A
    I(Vtest182:p) = -47.0171e-21 A
    I(Vtest183:p) = -47.0171e-21 A
    I(Vtest184:p) = -47.0171e-21 A
    I(Vtest185:p) = -47.0171e-21 A
    I(Vtest186:p) = -47.0171e-21 A
    I(Vtest187:p) = -47.0171e-21 A
    I(Vtest188:p) = -47.0171e-21 A
    I(Vtest189:p) = -47.0171e-21 A
    I(Vtest190:p) = -47.0171e-21 A
    I(Vtest191:p) = -47.0171e-21 A
    I(Vtest192:p) = -47.0171e-21 A
    I(Vtest193:p) = -47.0171e-21 A
    I(Vtest194:p) = -47.0171e-21 A
    I(Vtest195:p) = -47.0171e-21 A
    I(Vtest196:p) = -47.0171e-21 A
    I(Vtest197:p) = -47.0171e-21 A
    I(Vtest198:p) = -47.0171e-21 A
    I(Vtest199:p) = -47.0171e-21 A
    I(Vtest200:p) = -47.0171e-21 A
    I(Vtest201:p) = -47.0171e-21 A
    I(Vtest202:p) = -47.0171e-21 A
    I(Vtest203:p) = -47.0171e-21 A
    I(Vtest204:p) = -47.0171e-21 A
    I(Vtest205:p) = -47.0171e-21 A
    I(Vtest206:p) = -47.0171e-21 A
    I(Vtest207:p) = -47.0171e-21 A
    I(Vtest208:p) = -40.3966 fA
    I(Vtest209:p) = -47.0171e-21 A
    I(Vtest210:p) = -47.0171e-21 A
    I(Vtest211:p) = -47.0171e-21 A
    I(Vtest212:p) = -47.0171e-21 A
    I(Vtest213:p) = -47.0171e-21 A
    I(Vtest214:p) = -47.0171e-21 A
    I(Vtest215:p) = -47.0171e-21 A
    I(Vtest216:p) = -47.0171e-21 A
    I(Vtest217:p) = -47.0171e-21 A
    I(Vtest218:p) = -47.0171e-21 A
    I(Vtest219:p) = -47.0171e-21 A
    I(Vtest220:p) = -47.0171e-21 A
    I(Vtest221:p) = -47.0171e-21 A
    I(Vtest222:p) = -47.0171e-21 A
    I(Vtest223:p) = -47.0171e-21 A
    I(Vtest224:p) = -47.0171e-21 A
    I(Vtest225:p) = -47.0171e-21 A
    I(Vtest226:p) = -47.0171e-21 A
    I(Vtest227:p) = -47.0171e-21 A
    I(Vtest228:p) = -47.0171e-21 A
    I(Vtest229:p) = -47.0171e-21 A
    I(Vtest230:p) = -47.0171e-21 A
    I(Vtest231:p) = -47.0171e-21 A
    I(Vtest232:p) = -47.0171e-21 A
    I(Vtest233:p) = -47.0171e-21 A
    I(Vtest234:p) = -47.0171e-21 A
    I(Vtest235:p) = -47.0171e-21 A
    I(Vtest236:p) = -47.0171e-21 A
    I(Vtest237:p) = -47.0171e-21 A
    I(Vtest238:p) = -47.0171e-21 A
    I(Vtest239:p) = -47.0171e-21 A
    I(Vtest240:p) = -40.3967 fA
    I(Vtest241:p) = -47.0171e-21 A
    I(Vtest242:p) = -47.0171e-21 A
    I(Vtest243:p) = -47.0171e-21 A
    I(Vtest244:p) = -47.0171e-21 A
    I(Vtest245:p) = -47.0171e-21 A
    I(Vtest246:p) = -47.0171e-21 A
    I(Vtest247:p) = -47.0171e-21 A
    I(Vtest248:p) = -47.0171e-21 A
    I(Vtest249:p) = -47.0171e-21 A
    I(Vtest250:p) = -47.0171e-21 A
    I(Vtest251:p) = -47.0171e-21 A
    I(Vtest252:p) = -47.0171e-21 A
    I(Vtest253:p) = -47.0171e-21 A
    I(Vtest254:p) = -47.0171e-21 A
    I(Vtest255:p) = -47.0171e-21 A
    I(Vtest256:p) = -47.0171e-21 A
    I(Vvdd:p) = -15.9968 uA
    I(Vwl1:p) = -313.604 nA
    I(Vwl2:p) = -313.604 nA
    I(Vwl3:p) = -313.604 nA
    I(Vwl4:p) = -313.604 nA
    I(Vwl5:p) = -313.604 nA
    I(Vwl6:p) = -313.604 nA
    I(Vwl7:p) = -313.604 nA
    I(Vwl8:p) = -313.604 nA
    I(Vwl9:p) = -313.604 nA
    I(Vwl10:p) = -313.604 nA
    I(Vwl11:p) = -313.604 nA
    I(Vwl12:p) = -313.604 nA
    I(Vwl13:p) = -313.604 nA
    I(Vwl14:p) = -313.604 nA
    I(Vwl15:p) = -313.604 nA
    I(Vwl16:p) = 35.0158 nA
    I(Vwl17:p) = -313.604 nA
    I(Vwl18:p) = -313.604 nA
    I(Vwl19:p) = -313.604 nA
    I(Vwl20:p) = -313.604 nA
    I(Vwl21:p) = -313.604 nA
    I(Vwl22:p) = -313.604 nA
    I(Vwl23:p) = -313.604 nA
    I(Vwl24:p) = -313.604 nA
    I(Vwl25:p) = -313.604 nA
    I(Vwl26:p) = -313.604 nA
    I(Vwl27:p) = -313.604 nA
    I(Vwl28:p) = -313.604 nA
    I(Vwl29:p) = -313.604 nA
    I(Vwl30:p) = -313.604 nA
    I(Vwl31:p) = -313.604 nA
    I(Vwl32:p) = -313.604 nA
    I(Vwlen1:p) = -68.7656 nA
    I(Vwlen:p) = 153.075 nA
    V(WL1) = 703.054 mV
    V(WL1T) = 1.6 V
    V(WL2) = 703.054 mV
    V(WL2T) = 1.6 V
    V(WL3) = 703.054 mV
    V(WL3T) = 1.6 V
    V(WL4) = 703.054 mV
    V(WL4T) = 1.6 V
    V(WL5) = 703.054 mV
    V(WL5T) = 1.6 V
    V(WL6) = 703.054 mV
    V(WL6T) = 1.6 V
    V(WL7) = 703.054 mV
    V(WL7T) = 1.6 V
    V(WL8) = 703.054 mV
    V(WL8T) = 1.6 V
    V(WL9) = 703.054 mV
    V(WL9T) = 1.6 V
    V(WL10) = 703.054 mV
    V(WL10T) = 1.6 V
    V(WL11) = 703.054 mV
    V(WL11T) = 1.6 V
    V(WL12) = 703.054 mV
    V(WL12T) = 1.6 V
    V(WL13) = 703.054 mV
    V(WL13T) = 1.6 V
    V(WL14) = 703.054 mV
    V(WL14T) = 1.6 V
    V(WL15) = 703.054 mV
    V(WL15T) = 1.6 V
    V(WL16) = 454.374 nV
    V(WL16T) = 0 V
    V(WL17) = 703.054 mV
    V(WL17T) = 1.6 V
    V(WL18) = 703.054 mV
    V(WL18T) = 1.6 V
    V(WL19) = 703.054 mV
    V(WL19T) = 1.6 V
    V(WL20) = 703.054 mV
    V(WL20T) = 1.6 V
    V(WL21) = 703.054 mV
    V(WL21T) = 1.6 V
    V(WL22) = 703.054 mV
    V(WL22T) = 1.6 V
    V(WL23) = 703.054 mV
    V(WL23T) = 1.6 V
    V(WL24) = 703.054 mV
    V(WL24T) = 1.6 V
    V(WL25) = 703.054 mV
    V(WL25T) = 1.6 V
    V(WL26) = 703.054 mV
    V(WL26T) = 1.6 V
    V(WL27) = 703.054 mV
    V(WL27T) = 1.6 V
    V(WL28) = 703.054 mV
    V(WL28T) = 1.6 V
    V(WL29) = 703.054 mV
    V(WL29T) = 1.6 V
    V(WL30) = 703.054 mV
    V(WL30T) = 1.6 V
    V(WL31) = 703.054 mV
    V(WL31T) = 1.6 V
    V(WL32) = 703.054 mV
    V(WL32T) = 1.6 V
    V(X1.NM) = 295.288 mV
    V(X1.X1.n50) = 0 V
    V(X1.X1.n51) = 302.69e-39 V
    V(X1.X1.n60) = 0 V
    V(X1.X1.n61) = 302.69e-39 V
    V(X1.X1.nBiStable) = 1.38594e-51 V
    V(X1.X1.nFeedback) = 138.594e-57 V
    V(X1.X1.nINeg) = 0 V
    V(X1.X1.nIPos) = 457.37 aV
    V(X1.X1.nRVFit) = 1.8 V
    V(X1.X1.nVCR1) = 295.288 mV
    V(X1.X1.nVCtrl) = 1.8 V
    V(X1.X1.nVDec) = -138.441e-54 V
    V(X1.X1.nVTMR) = 1.8 V
    I(X1.X1.vISample:p) = -47.0171e-21 A
    V(X2.NM) = 295.288 mV
    V(X2.X1.n50) = -22.9609e-54 V
    V(X2.X1.n51) = -135.183e-51 V
    V(X2.X1.n60) = 0 V
    V(X2.X1.n61) = 0 V
    V(X2.X1.nBiStable) = -618.844e-66 V
    V(X2.X1.nFeedback) = -61.8865e-69 V
    V(X2.X1.nINeg) = 0 V
    V(X2.X1.nIPos) = 457.37 aV
    V(X2.X1.nRVFit) = 1.8 V
    V(X2.X1.nVCR1) = 295.288 mV
    V(X2.X1.nVCtrl) = 1.8 V
    V(X2.X1.nVDec) = 61.8288e-66 V
    V(X2.X1.nVTMR) = 1.8 V
    I(X2.X1.vISample:p) = -47.0171e-21 A
    V(X3.NM) = 295.288 mV
    V(X3.X1.n50) = 0 V
    V(X3.X1.n51) = -135.183e-51 V
    V(X3.X1.n60) = 0 V
    V(X3.X1.n61) = 0 V
    V(X3.X1.nBiStable) = -618.992e-66 V
    V(X3.X1.nFeedback) = -61.9046e-69 V
    V(X3.X1.nINeg) = 0 V
    V(X3.X1.nIPos) = 457.37 aV
    V(X3.X1.nRVFit) = 1.8 V
    V(X3.X1.nVCR1) = 295.288 mV
    V(X3.X1.nVCtrl) = 1.8 V
    V(X3.X1.nVDec) = 61.8288e-66 V
    V(X3.X1.nVTMR) = 1.8 V
    I(X3.X1.vISample:p) = -47.0171e-21 A
    V(X4.NM) = 295.288 mV
    V(X4.X1.n50) = 328.423e-39 V
    V(X4.X1.n51) = 11.7549e-39 V
    V(X4.X1.n60) = 328.423e-39 V
    V(X4.X1.n61) = 11.7549e-39 V
    V(X4.X1.nBiStable) = 11.4998e-51 V
    V(X4.X1.nFeedback) = 1.14998e-54 V
    V(X4.X1.nINeg) = 0 V
    V(X4.X1.nIPos) = 457.37 aV
    V(X4.X1.nRVFit) = 1.8 V
    V(X4.X1.nVCR1) = 295.288 mV
    V(X4.X1.nVCtrl) = 1.8 V
    V(X4.X1.nVDec) = -1.14871e-51 V
    V(X4.X1.nVTMR) = 1.8 V
    I(X4.X1.vISample:p) = -47.0171e-21 A
    V(X5.NM) = 295.288 mV
    V(X5.X1.n50) = 171.057e-51 V
    V(X5.X1.n51) = 417.3e-39 V
    V(X5.X1.n60) = 0 V
    V(X5.X1.n61) = 417.3e-39 V
    V(X5.X1.nBiStable) = 27.2838e-48 V
    V(X5.X1.nFeedback) = 2.72838e-51 V
    V(X5.X1.nINeg) = 0 V
    V(X5.X1.nIPos) = 457.37 aV
    V(X5.X1.nRVFit) = 1.8 V
    V(X5.X1.nVCR1) = 295.288 mV
    V(X5.X1.nVCtrl) = 1.8 V
    V(X5.X1.nVDec) = -2.72537e-48 V
    V(X5.X1.nVTMR) = 1.8 V
    I(X5.X1.vISample:p) = -47.0171e-21 A
    V(X6.NM) = 295.288 mV
    V(X6.X1.n50) = -342.114e-51 V
    V(X6.X1.n51) = 423.178e-39 V
    V(X6.X1.n60) = 0 V
    V(X6.X1.n61) = 423.178e-39 V
    V(X6.X1.nBiStable) = 30.4162e-48 V
    V(X6.X1.nFeedback) = 3.04162e-51 V
    V(X6.X1.nINeg) = 0 V
    V(X6.X1.nIPos) = 457.37 aV
    V(X6.X1.nRVFit) = 1.8 V
    V(X6.X1.nVCR1) = 295.288 mV
    V(X6.X1.nVCtrl) = 1.8 V
    V(X6.X1.nVDec) = -3.03828e-48 V
    V(X6.X1.nVTMR) = 1.8 V
    I(X6.X1.vISample:p) = -47.0171e-21 A
    V(X7.NM) = 295.288 mV
    V(X7.X1.n50) = 0 V
    V(X7.X1.n51) = 417.3e-39 V
    V(X7.X1.n60) = 0 V
    V(X7.X1.n61) = 417.3e-39 V
    V(X7.X1.nBiStable) = 27.0744e-48 V
    V(X7.X1.nFeedback) = 2.70744e-51 V
    V(X7.X1.nINeg) = 0 V
    V(X7.X1.nIPos) = 457.37 aV
    V(X7.X1.nRVFit) = 1.8 V
    V(X7.X1.nVCR1) = 295.288 mV
    V(X7.X1.nVCtrl) = 1.8 V
    V(X7.X1.nVDec) = -2.70446e-48 V
    V(X7.X1.nVTMR) = 1.8 V
    I(X7.X1.vISample:p) = -47.0171e-21 A
    V(X8.NM) = 295.288 mV
    V(X8.X1.n50) = -45.9218e-54 V
    V(X8.X1.n51) = 114.611e-39 V
    V(X8.X1.n60) = 0 V
    V(X8.X1.n61) = 114.611e-39 V
    V(X8.X1.nBiStable) = 524.772e-54 V
    V(X8.X1.nFeedback) = 52.4772e-57 V
    V(X8.X1.nINeg) = 0 V
    V(X8.X1.nIPos) = 457.37 aV
    V(X8.X1.nRVFit) = 1.8 V
    V(X8.X1.nVCR1) = 295.288 mV
    V(X8.X1.nVCtrl) = 1.8 V
    V(X8.X1.nVDec) = -52.4195e-54 V
    V(X8.X1.nVTMR) = 1.8 V
    I(X8.X1.vISample:p) = -47.0171e-21 A
    V(X9.NM) = 295.288 mV
    V(X9.X1.n50) = 0 V
    V(X9.X1.n51) = 111.672e-39 V
    V(X9.X1.n60) = 0 V
    V(X9.X1.n61) = 111.672e-39 V
    V(X9.X1.nBiStable) = 511.316e-54 V
    V(X9.X1.nFeedback) = 51.1316e-57 V
    V(X9.X1.nINeg) = 0 V
    V(X9.X1.nIPos) = 457.37 aV
    V(X9.X1.nRVFit) = 1.8 V
    V(X9.X1.nVCR1) = 295.288 mV
    V(X9.X1.nVCtrl) = 1.8 V
    V(X9.X1.nVDec) = -51.0754e-54 V
    V(X9.X1.nVTMR) = 1.8 V
    I(X9.X1.vISample:p) = -47.0171e-21 A
    V(X10.NM) = 295.288 mV
    V(X10.X1.n50) = -109.476e-51 V
    V(X10.X1.n51) = -2.939e-51 V
    V(X10.X1.n60) = 0 V
    V(X10.X1.n61) = 0 V
    V(X10.X1.nBiStable) = 14.7797e-60 V
    V(X10.X1.nFeedback) = 1.48131e-63 V
    V(X10.X1.nINeg) = 0 V
    V(X10.X1.nIPos) = 457.37 aV
    V(X10.X1.nRVFit) = 1.8 V
    V(X10.X1.nVCR1) = 295.288 mV
    V(X10.X1.nVCtrl) = 1.8 V
    V(X10.X1.nVDec) = -1.45852e-60 V
    V(X10.X1.nVTMR) = 1.8 V
    I(X10.X1.vISample:p) = -47.0171e-21 A
    V(X11.NM) = 295.288 mV
    V(X11.X1.n50) = 0 V
    V(X11.X1.n51) = 423.178e-39 V
    V(X11.X1.n60) = 0 V
    V(X11.X1.n61) = 423.178e-39 V
    V(X11.X1.nBiStable) = 1.93762e-51 V
    V(X11.X1.nFeedback) = 193.762e-57 V
    V(X11.X1.nINeg) = 0 V
    V(X11.X1.nIPos) = 457.37 aV
    V(X11.X1.nRVFit) = 1.8 V
    V(X11.X1.nVCR1) = 295.288 mV
    V(X11.X1.nVCtrl) = 1.8 V
    V(X11.X1.nVDec) = -193.549e-54 V
    V(X11.X1.nVTMR) = 1.8 V
    I(X11.X1.vISample:p) = -47.0171e-21 A
    V(X12.NM) = 295.288 mV
    V(X12.X1.n50) = 0 V
    V(X12.X1.n51) = 417.3e-39 V
    V(X12.X1.n60) = 0 V
    V(X12.X1.n61) = 417.3e-39 V
    V(X12.X1.nBiStable) = 1.91071e-51 V
    V(X12.X1.nFeedback) = 191.071e-57 V
    V(X12.X1.nINeg) = 0 V
    V(X12.X1.nIPos) = 457.37 aV
    V(X12.X1.nRVFit) = 1.8 V
    V(X12.X1.nVCR1) = 295.288 mV
    V(X12.X1.nVCtrl) = 1.8 V
    V(X12.X1.nVDec) = -190.861e-54 V
    V(X12.X1.nVTMR) = 1.8 V
    I(X12.X1.vISample:p) = -47.0171e-21 A
    V(X13.NM) = 295.288 mV
    V(X13.X1.n50) = 0 V
    V(X13.X1.n51) = -2.939e-51 V
    V(X13.X1.n60) = 0 V
    V(X13.X1.n61) = 0 V
    V(X13.X1.nBiStable) = -13.3531e-66 V
    V(X13.X1.nFeedback) = -1.34024e-69 V
    V(X13.X1.nINeg) = 0 V
    V(X13.X1.nIPos) = 457.37 aV
    V(X13.X1.nRVFit) = 1.8 V
    V(X13.X1.nVCR1) = 295.288 mV
    V(X13.X1.nVCtrl) = 1.8 V
    V(X13.X1.nVDec) = 1.34421e-66 V
    V(X13.X1.nVTMR) = 1.8 V
    I(X13.X1.vISample:p) = -47.0171e-21 A
    V(X14.NM) = 295.288 mV
    V(X14.X1.n50) = -196.674e-39 V
    V(X14.X1.n51) = -135.183e-51 V
    V(X14.X1.n60) = -196.674e-39 V
    V(X14.X1.n61) = 0 V
    V(X14.X1.nBiStable) = -30.0037e-48 V
    V(X14.X1.nFeedback) = -3.00037e-51 V
    V(X14.X1.nINeg) = 0 V
    V(X14.X1.nIPos) = 457.37 aV
    V(X14.X1.nRVFit) = 1.8 V
    V(X14.X1.nVCR1) = 295.288 mV
    V(X14.X1.nVCtrl) = 1.8 V
    V(X14.X1.nVDec) = 2.99706e-48 V
    V(X14.X1.nVTMR) = 1.8 V
    I(X14.X1.vISample:p) = -47.0171e-21 A
    V(X15.NM) = 295.288 mV
    V(X15.X1.n50) = 336.595e-39 V
    V(X15.X1.n51) = -408.515e-51 V
    V(X15.X1.n60) = 336.595e-39 V
    V(X15.X1.n61) = 0 V
    V(X15.X1.nBiStable) = -152.613e-51 V
    V(X15.X1.nFeedback) = -15.2613e-54 V
    V(X15.X1.nINeg) = 0 V
    V(X15.X1.nIPos) = 457.37 aV
    V(X15.X1.nRVFit) = 1.8 V
    V(X15.X1.nVCR1) = 295.288 mV
    V(X15.X1.nVCtrl) = 1.8 V
    V(X15.X1.nVDec) = 15.2445e-51 V
    V(X15.X1.nVTMR) = 1.8 V
    I(X15.X1.vISample:p) = -47.0171e-21 A
    V(X16.NM) = 295.288 mV
    V(X16.X1.n50) = 0 V
    V(X16.X1.n51) = -117.441e-30 V
    V(X16.X1.n60) = 0 V
    V(X16.X1.n61) = -117.441e-30 V
    V(X16.X1.nBiStable) = 638.445e-33 V
    V(X16.X1.nFeedback) = 63.8445e-36 V
    V(X16.X1.nINeg) = 0 V
    V(X16.X1.nIPos) = 403.967 pV
    V(X16.X1.nRVFit) = 1.8 V
    V(X16.X1.nVCR1) = 295.288 mV
    V(X16.X1.nVCtrl) = 1.8 V
    V(X16.X1.nVDec) = -63.7743e-33 V
    V(X16.X1.nVTMR) = 1.8 V
    I(X16.X1.vISample:p) = -40.3966 fA
    V(X17.NM) = 295.288 mV
    V(X17.X1.n50) = 87.5812e-48 V
    V(X17.X1.n51) = 302.69e-39 V
    V(X17.X1.n60) = 87.5812e-48 V
    V(X17.X1.n61) = 302.69e-39 V
    V(X17.X1.nBiStable) = 1.38594e-51 V
    V(X17.X1.nFeedback) = 138.594e-57 V
    V(X17.X1.nINeg) = 0 V
    V(X17.X1.nIPos) = 457.37 aV
    V(X17.X1.nRVFit) = 1.8 V
    V(X17.X1.nVCR1) = 295.288 mV
    V(X17.X1.nVCtrl) = 1.8 V
    V(X17.X1.nVDec) = -138.441e-54 V
    V(X17.X1.nVTMR) = 1.8 V
    I(X17.X1.vISample:p) = -47.0171e-21 A
    V(X18.NM) = 295.288 mV
    V(X18.X1.n50) = 45.9177e-42 V
    V(X18.X1.n51) = -138.128e-51 V
    V(X18.X1.n60) = 45.9177e-42 V
    V(X18.X1.n61) = 0 V
    V(X18.X1.nBiStable) = -632.345e-66 V
    V(X18.X1.nFeedback) = -63.2268e-69 V
    V(X18.X1.nINeg) = 0 V
    V(X18.X1.nIPos) = 457.37 aV
    V(X18.X1.nRVFit) = 1.8 V
    V(X18.X1.nVCR1) = 295.288 mV
    V(X18.X1.nVCtrl) = 1.8 V
    V(X18.X1.nVDec) = 63.1754e-66 V
    V(X18.X1.nVTMR) = 1.8 V
    I(X18.X1.vISample:p) = -47.0171e-21 A
    V(X19.NM) = 295.288 mV
    V(X19.X1.n50) = 0 V
    V(X19.X1.n51) = 302.69e-39 V
    V(X19.X1.n60) = 0 V
    V(X19.X1.n61) = 302.69e-39 V
    V(X19.X1.nBiStable) = 1.38594e-51 V
    V(X19.X1.nFeedback) = 138.594e-57 V
    V(X19.X1.nINeg) = 0 V
    V(X19.X1.nIPos) = 457.37 aV
    V(X19.X1.nRVFit) = 1.8 V
    V(X19.X1.nVCR1) = 295.288 mV
    V(X19.X1.nVCtrl) = 1.8 V
    V(X19.X1.nVDec) = -138.441e-54 V
    V(X19.X1.nVTMR) = 1.8 V
    I(X19.X1.vISample:p) = -47.0171e-21 A
    V(X20.NM) = 295.288 mV
    V(X20.X1.n50) = 350.325e-48 V
    V(X20.X1.n51) = 417.3e-39 V
    V(X20.X1.n60) = 350.325e-48 V
    V(X20.X1.n61) = 417.3e-39 V
    V(X20.X1.nBiStable) = 1.91071e-51 V
    V(X20.X1.nFeedback) = 191.071e-57 V
    V(X20.X1.nINeg) = 0 V
    V(X20.X1.nIPos) = 457.37 aV
    V(X20.X1.nRVFit) = 1.8 V
    V(X20.X1.nVCR1) = 295.288 mV
    V(X20.X1.nVCtrl) = 1.8 V
    V(X20.X1.nVDec) = -190.861e-54 V
    V(X20.X1.nVTMR) = 1.8 V
    I(X20.X1.vISample:p) = -47.0171e-21 A
    V(X21.NM) = 295.288 mV
    V(X21.X1.n50) = -5.74023e-54 V
    V(X21.X1.n51) = 111.672e-39 V
    V(X21.X1.n60) = 0 V
    V(X21.X1.n61) = 111.672e-39 V
    V(X21.X1.nBiStable) = 511.316e-54 V
    V(X21.X1.nFeedback) = 51.1316e-57 V
    V(X21.X1.nINeg) = 0 V
    V(X21.X1.nIPos) = 457.37 aV
    V(X21.X1.nRVFit) = 1.8 V
    V(X21.X1.nVCR1) = 295.288 mV
    V(X21.X1.nVCtrl) = 1.8 V
    V(X21.X1.nVDec) = -51.0754e-54 V
    V(X21.X1.nVTMR) = 1.8 V
    I(X21.X1.vISample:p) = -47.0171e-21 A
    V(X22.NM) = 295.288 mV
    V(X22.X1.n50) = -54.7372e-39 V
    V(X22.X1.n51) = 302.69e-39 V
    V(X22.X1.n60) = -54.7372e-39 V
    V(X22.X1.n61) = 302.69e-39 V
    V(X22.X1.nBiStable) = -521.722e-54 V
    V(X22.X1.nFeedback) = -52.1722e-57 V
    V(X22.X1.nINeg) = 0 V
    V(X22.X1.nIPos) = 457.37 aV
    V(X22.X1.nRVFit) = 1.8 V
    V(X22.X1.nVCR1) = 295.288 mV
    V(X22.X1.nVCtrl) = 1.8 V
    V(X22.X1.nVDec) = 52.1148e-54 V
    V(X22.X1.nVTMR) = 1.8 V
    I(X22.X1.vISample:p) = -47.0171e-21 A
    V(X23.NM) = 295.288 mV
    V(X23.X1.n50) = 45.9177e-42 V
    V(X23.X1.n51) = 417.3e-39 V
    V(X23.X1.n60) = 45.9177e-42 V
    V(X23.X1.n61) = 417.3e-39 V
    V(X23.X1.nBiStable) = 1.91071e-51 V
    V(X23.X1.nFeedback) = 191.071e-57 V
    V(X23.X1.nINeg) = 0 V
    V(X23.X1.nIPos) = 457.37 aV
    V(X23.X1.nRVFit) = 1.8 V
    V(X23.X1.nVCR1) = 295.288 mV
    V(X23.X1.nVCtrl) = 1.8 V
    V(X23.X1.nVDec) = -190.861e-54 V
    V(X23.X1.nVTMR) = 1.8 V
    I(X23.X1.vISample:p) = -47.0171e-21 A
    V(X24.NM) = 295.288 mV
    V(X24.X1.n50) = 0 V
    V(X24.X1.n51) = -293.879e-51 V
    V(X24.X1.n60) = 0 V
    V(X24.X1.n61) = 0 V
    V(X24.X1.nBiStable) = -1.34559e-63 V
    V(X24.X1.nFeedback) = -134.559e-69 V
    V(X24.X1.nINeg) = 0 V
    V(X24.X1.nIPos) = 457.37 aV
    V(X24.X1.nRVFit) = 1.8 V
    V(X24.X1.nVCR1) = 295.288 mV
    V(X24.X1.nVCtrl) = 1.8 V
    V(X24.X1.nVDec) = 134.411e-66 V
    V(X24.X1.nVTMR) = 1.8 V
    I(X24.X1.vISample:p) = -47.0171e-21 A
    V(X25.NM) = 295.288 mV
    V(X25.X1.n50) = 0 V
    V(X25.X1.n51) = 417.3e-39 V
    V(X25.X1.n60) = 0 V
    V(X25.X1.n61) = 417.3e-39 V
    V(X25.X1.nBiStable) = 1.91071e-51 V
    V(X25.X1.nFeedback) = 191.071e-57 V
    V(X25.X1.nINeg) = 0 V
    V(X25.X1.nIPos) = 457.37 aV
    V(X25.X1.nRVFit) = 1.8 V
    V(X25.X1.nVCR1) = 295.288 mV
    V(X25.X1.nVCtrl) = 1.8 V
    V(X25.X1.nVDec) = -190.861e-54 V
    V(X25.X1.nVTMR) = 1.8 V
    I(X25.X1.vISample:p) = -47.0171e-21 A
    V(X26.NM) = 295.288 mV
    V(X26.X1.n50) = 0 V
    V(X26.X1.n51) = -411.439e-51 V
    V(X26.X1.n60) = 0 V
    V(X26.X1.n61) = 0 V
    V(X26.X1.nBiStable) = -1.88387e-63 V
    V(X26.X1.nFeedback) = -188.387e-69 V
    V(X26.X1.nINeg) = 0 V
    V(X26.X1.nIPos) = 457.37 aV
    V(X26.X1.nRVFit) = 1.8 V
    V(X26.X1.nVCR1) = 295.288 mV
    V(X26.X1.nVCtrl) = 1.8 V
    V(X26.X1.nVDec) = 188.18e-66 V
    V(X26.X1.nVTMR) = 1.8 V
    I(X26.X1.vISample:p) = -47.0171e-21 A
    V(X27.NM) = 295.288 mV
    V(X27.X1.n50) = 0 V
    V(X27.X1.n51) = 420.239e-39 V
    V(X27.X1.n60) = 0 V
    V(X27.X1.n61) = 420.239e-39 V
    V(X27.X1.nBiStable) = 20.1757e-48 V
    V(X27.X1.nFeedback) = 2.01757e-51 V
    V(X27.X1.nINeg) = 0 V
    V(X27.X1.nIPos) = 457.37 aV
    V(X27.X1.nRVFit) = 1.8 V
    V(X27.X1.nVCR1) = 295.288 mV
    V(X27.X1.nVCtrl) = 1.8 V
    V(X27.X1.nVDec) = -2.01535e-48 V
    V(X27.X1.nVTMR) = 1.8 V
    I(X27.X1.vISample:p) = -47.0171e-21 A
    V(X28.NM) = 295.288 mV
    V(X28.X1.n50) = 0 V
    V(X28.X1.n51) = 117.549e-39 V
    V(X28.X1.n60) = 0 V
    V(X28.X1.n61) = 117.549e-39 V
    V(X28.X1.nBiStable) = 538.227e-54 V
    V(X28.X1.nFeedback) = 53.8227e-57 V
    V(X28.X1.nINeg) = 0 V
    V(X28.X1.nIPos) = 457.37 aV
    V(X28.X1.nRVFit) = 1.8 V
    V(X28.X1.nVCR1) = 295.288 mV
    V(X28.X1.nVCtrl) = 1.8 V
    V(X28.X1.nVDec) = -53.7635e-54 V
    V(X28.X1.nVTMR) = 1.8 V
    I(X28.X1.vISample:p) = -47.0171e-21 A
    V(X29.NM) = 295.288 mV
    V(X29.X1.n50) = 0 V
    V(X29.X1.n51) = 111.672e-39 V
    V(X29.X1.n60) = 0 V
    V(X29.X1.n61) = 111.672e-39 V
    V(X29.X1.nBiStable) = 511.316e-54 V
    V(X29.X1.nFeedback) = 51.1316e-57 V
    V(X29.X1.nINeg) = 0 V
    V(X29.X1.nIPos) = 457.37 aV
    V(X29.X1.nRVFit) = 1.8 V
    V(X29.X1.nVCR1) = 295.288 mV
    V(X29.X1.nVCtrl) = 1.8 V
    V(X29.X1.nVDec) = -51.0754e-54 V
    V(X29.X1.nVTMR) = 1.8 V
    I(X29.X1.vISample:p) = -47.0171e-21 A
    V(X30.NM) = 295.288 mV
    V(X30.X1.n50) = 0 V
    V(X30.X1.n51) = 420.239e-39 V
    V(X30.X1.n60) = 0 V
    V(X30.X1.n61) = 420.239e-39 V
    V(X30.X1.nBiStable) = 1.92416e-51 V
    V(X30.X1.nFeedback) = 192.416e-57 V
    V(X30.X1.nINeg) = 0 V
    V(X30.X1.nIPos) = 457.37 aV
    V(X30.X1.nRVFit) = 1.8 V
    V(X30.X1.nVCR1) = 295.288 mV
    V(X30.X1.nVCtrl) = 1.8 V
    V(X30.X1.nVDec) = -192.205e-54 V
    V(X30.X1.nVTMR) = 1.8 V
    I(X30.X1.vISample:p) = -47.0171e-21 A
    V(X31.NM) = 295.288 mV
    V(X31.X1.n50) = 157.501e-39 V
    V(X31.X1.n51) = 111.672e-39 V
    V(X31.X1.n60) = 157.501e-39 V
    V(X31.X1.n61) = 111.672e-39 V
    V(X31.X1.nBiStable) = -3.8148e-48 V
    V(X31.X1.nFeedback) = -381.48e-54 V
    V(X31.X1.nINeg) = 0 V
    V(X31.X1.nIPos) = 457.37 aV
    V(X31.X1.nRVFit) = 1.8 V
    V(X31.X1.nVCR1) = 295.288 mV
    V(X31.X1.nVCtrl) = 1.8 V
    V(X31.X1.nVDec) = 381.061e-51 V
    V(X31.X1.nVTMR) = 1.8 V
    I(X31.X1.vISample:p) = -47.0171e-21 A
    V(X32.NM) = 295.288 mV
    V(X32.X1.n50) = -433.774e-39 V
    V(X32.X1.n51) = -293.879e-51 V
    V(X32.X1.n60) = -433.774e-39 V
    V(X32.X1.n61) = 0 V
    V(X32.X1.nBiStable) = -30.1258e-48 V
    V(X32.X1.nFeedback) = -3.01258e-51 V
    V(X32.X1.nINeg) = 0 V
    V(X32.X1.nIPos) = 457.369 aV
    V(X32.X1.nRVFit) = 1.8 V
    V(X32.X1.nVCR1) = 295.288 mV
    V(X32.X1.nVCtrl) = 1.8 V
    V(X32.X1.nVDec) = 3.00927e-48 V
    V(X32.X1.nVTMR) = 1.8 V
    I(X32.X1.vISample:p) = -47.0171e-21 A
    V(X33.NM) = 295.288 mV
    V(X33.X1.n50) = 425.808e-39 V
    V(X33.X1.n51) = -182.207e-51 V
    V(X33.X1.n60) = 425.808e-39 V
    V(X33.X1.n61) = 0 V
    V(X33.X1.nBiStable) = -13.4764e-48 V
    V(X33.X1.nFeedback) = -1.34764e-51 V
    V(X33.X1.nINeg) = 0 V
    V(X33.X1.nIPos) = 458.085 aV
    V(X33.X1.nRVFit) = 1.8 V
    V(X33.X1.nVCR1) = 295.288 mV
    V(X33.X1.nVCtrl) = 1.8 V
    V(X33.X1.nVDec) = 1.34616e-48 V
    V(X33.X1.nVTMR) = 1.8 V
    I(X33.X1.vISample:p) = -47.0171e-21 A
    V(X34.NM) = 295.288 mV
    V(X34.X1.n50) = 0 V
    V(X34.X1.n51) = 70.5297e-39 V
    V(X34.X1.n60) = 0 V
    V(X34.X1.n61) = 70.5297e-39 V
    V(X34.X1.nBiStable) = 323.442e-54 V
    V(X34.X1.nFeedback) = 32.3442e-57 V
    V(X34.X1.nINeg) = 0 V
    V(X34.X1.nIPos) = 458.085 aV
    V(X34.X1.nRVFit) = 1.8 V
    V(X34.X1.nVCR1) = 295.288 mV
    V(X34.X1.nVCtrl) = 1.8 V
    V(X34.X1.nVDec) = -32.3086e-54 V
    V(X34.X1.nVTMR) = 1.8 V
    I(X34.X1.vISample:p) = -47.0171e-21 A
    V(X35.NM) = 295.288 mV
    V(X35.X1.n50) = -22.9609e-54 V
    V(X35.X1.n51) = -64.6579e-51 V
    V(X35.X1.n60) = 0 V
    V(X35.X1.n61) = 0 V
    V(X35.X1.nBiStable) = -296.514e-66 V
    V(X35.X1.nFeedback) = -29.6483e-69 V
    V(X35.X1.nINeg) = 0 V
    V(X35.X1.nIPos) = 458.085 aV
    V(X35.X1.nRVFit) = 1.8 V
    V(X35.X1.nVCR1) = 295.288 mV
    V(X35.X1.nVCtrl) = 1.8 V
    V(X35.X1.nVDec) = 29.6188e-66 V
    V(X35.X1.nVTMR) = 1.8 V
    I(X35.X1.vISample:p) = -47.0171e-21 A
    V(X36.NM) = 295.288 mV
    V(X36.X1.n50) = -284.664e-60 V
    V(X36.X1.n51) = 340.893e-39 V
    V(X36.X1.n60) = 0 V
    V(X36.X1.n61) = 340.893e-39 V
    V(X36.X1.nBiStable) = 1.5633e-51 V
    V(X36.X1.nFeedback) = 156.33e-57 V
    V(X36.X1.nINeg) = 0 V
    V(X36.X1.nIPos) = 458.085 aV
    V(X36.X1.nRVFit) = 1.8 V
    V(X36.X1.nVCR1) = 295.288 mV
    V(X36.X1.nVCtrl) = 1.8 V
    V(X36.X1.nVDec) = -156.158e-54 V
    V(X36.X1.nVTMR) = 1.8 V
    I(X36.X1.vISample:p) = -47.0171e-21 A
    V(X37.NM) = 295.288 mV
    V(X37.X1.n50) = 0 V
    V(X37.X1.n51) = 191.018e-39 V
    V(X37.X1.n60) = 0 V
    V(X37.X1.n61) = 191.018e-39 V
    V(X37.X1.nBiStable) = 875.988e-54 V
    V(X37.X1.nFeedback) = 87.5988e-57 V
    V(X37.X1.nINeg) = 0 V
    V(X37.X1.nIPos) = 458.085 aV
    V(X37.X1.nRVFit) = 1.8 V
    V(X37.X1.nVCR1) = 295.288 mV
    V(X37.X1.nVCtrl) = 1.8 V
    V(X37.X1.nVDec) = -87.5025e-54 V
    V(X37.X1.nVTMR) = 1.8 V
    I(X37.X1.vISample:p) = -47.0171e-21 A
    V(X38.NM) = 295.288 mV
    V(X38.X1.n50) = 0 V
    V(X38.X1.n51) = 340.893e-39 V
    V(X38.X1.n60) = 0 V
    V(X38.X1.n61) = 340.893e-39 V
    V(X38.X1.nBiStable) = 1.5633e-51 V
    V(X38.X1.nFeedback) = 156.33e-57 V
    V(X38.X1.nINeg) = 0 V
    V(X38.X1.nIPos) = 458.085 aV
    V(X38.X1.nRVFit) = 1.8 V
    V(X38.X1.nVCR1) = 295.288 mV
    V(X38.X1.nVCtrl) = 1.8 V
    V(X38.X1.nVDec) = -156.158e-54 V
    V(X38.X1.nVTMR) = 1.8 V
    I(X38.X1.vISample:p) = -47.0171e-21 A
    V(X39.NM) = 295.288 mV
    V(X39.X1.n50) = 0 V
    V(X39.X1.n51) = -64.6579e-51 V
    V(X39.X1.n60) = 0 V
    V(X39.X1.n61) = 0 V
    V(X39.X1.nBiStable) = -296.515e-66 V
    V(X39.X1.nFeedback) = -29.6515e-69 V
    V(X39.X1.nINeg) = 0 V
    V(X39.X1.nIPos) = 458.085 aV
    V(X39.X1.nRVFit) = 1.8 V
    V(X39.X1.nVCR1) = 295.288 mV
    V(X39.X1.nVCtrl) = 1.8 V
    V(X39.X1.nVDec) = 29.6188e-66 V
    V(X39.X1.nVTMR) = 1.8 V
    I(X39.X1.vISample:p) = -47.0171e-21 A
    V(X40.NM) = 295.288 mV
    V(X40.X1.n50) = 0 V
    V(X40.X1.n51) = -364.415e-51 V
    V(X40.X1.n60) = 0 V
    V(X40.X1.n61) = 0 V
    V(X40.X1.nBiStable) = 13.7006e-48 V
    V(X40.X1.nFeedback) = 1.37006e-51 V
    V(X40.X1.nINeg) = 0 V
    V(X40.X1.nIPos) = 458.085 aV
    V(X40.X1.nRVFit) = 1.8 V
    V(X40.X1.nVCR1) = 295.288 mV
    V(X40.X1.nVCtrl) = 1.8 V
    V(X40.X1.nVDec) = -1.36855e-48 V
    V(X40.X1.nVTMR) = 1.8 V
    I(X40.X1.vISample:p) = -47.0171e-21 A
    V(X41.NM) = 295.288 mV
    V(X41.X1.n50) = -109.486e-60 V
    V(X41.X1.n51) = 188.079e-39 V
    V(X41.X1.n60) = 0 V
    V(X41.X1.n61) = 188.079e-39 V
    V(X41.X1.nBiStable) = 862.511e-54 V
    V(X41.X1.nFeedback) = 86.2511e-57 V
    V(X41.X1.nINeg) = 0 V
    V(X41.X1.nIPos) = 458.085 aV
    V(X41.X1.nRVFit) = 1.8 V
    V(X41.X1.nVCR1) = 295.288 mV
    V(X41.X1.nVCtrl) = 1.8 V
    V(X41.X1.nVDec) = -86.1562e-54 V
    V(X41.X1.nVTMR) = 1.8 V
    I(X41.X1.vISample:p) = -47.0171e-21 A
    V(X42.NM) = 295.288 mV
    V(X42.X1.n50) = -428.935e-39 V
    V(X42.X1.n51) = -396.782e-39 V
    V(X42.X1.n60) = -428.935e-39 V
    V(X42.X1.n61) = -396.782e-39 V
    V(X42.X1.nBiStable) = -20.8396e-48 V
    V(X42.X1.nFeedback) = -2.08396e-51 V
    V(X42.X1.nINeg) = 0 V
    V(X42.X1.nIPos) = 458.085 aV
    V(X42.X1.nRVFit) = 1.8 V
    V(X42.X1.nVCR1) = 295.288 mV
    V(X42.X1.nVCtrl) = 1.8 V
    V(X42.X1.nVDec) = 2.08166e-48 V
    V(X42.X1.nVTMR) = 1.8 V
    I(X42.X1.vISample:p) = -47.0171e-21 A
    V(X43.NM) = 295.288 mV
    V(X43.X1.n50) = -218.949e-39 V
    V(X43.X1.n51) = -246.855e-51 V
    V(X43.X1.n60) = -218.949e-39 V
    V(X43.X1.n61) = 0 V
    V(X43.X1.nBiStable) = -8.0408e-51 V
    V(X43.X1.nFeedback) = -804.08e-57 V
    V(X43.X1.nINeg) = 0 V
    V(X43.X1.nIPos) = 458.085 aV
    V(X43.X1.nRVFit) = 1.8 V
    V(X43.X1.nVCR1) = 295.288 mV
    V(X43.X1.nVCtrl) = 1.8 V
    V(X43.X1.nVDec) = 803.196e-54 V
    V(X43.X1.nVTMR) = 1.8 V
    I(X43.X1.vISample:p) = -47.0171e-21 A
    V(X44.NM) = 295.288 mV
    V(X44.X1.n50) = 0 V
    V(X44.X1.n51) = 340.893e-39 V
    V(X44.X1.n60) = 0 V
    V(X44.X1.n61) = 340.893e-39 V
    V(X44.X1.nBiStable) = 1.5633e-51 V
    V(X44.X1.nFeedback) = 156.33e-57 V
    V(X44.X1.nINeg) = 0 V
    V(X44.X1.nIPos) = 458.085 aV
    V(X44.X1.nRVFit) = 1.8 V
    V(X44.X1.nVCR1) = 295.288 mV
    V(X44.X1.nVCtrl) = 1.8 V
    V(X44.X1.nVDec) = -156.158e-54 V
    V(X44.X1.nVTMR) = 1.8 V
    I(X44.X1.vISample:p) = -47.0171e-21 A
    V(X45.NM) = 295.288 mV
    V(X45.X1.n50) = 700.649e-48 V
    V(X45.X1.n51) = -367.38e-51 V
    V(X45.X1.n60) = 700.649e-48 V
    V(X45.X1.n61) = 0 V
    V(X45.X1.nBiStable) = 0 V
    V(X45.X1.nFeedback) = 0 V
    V(X45.X1.nINeg) = 0 V
    V(X45.X1.nIPos) = 458.085 aV
    V(X45.X1.nRVFit) = 1.8 V
    V(X45.X1.nVCR1) = 295.288 mV
    V(X45.X1.nVCtrl) = 1.8 V
    V(X45.X1.nVDec) = 0 V
    V(X45.X1.nVTMR) = 1.8 V
    I(X45.X1.vISample:p) = -47.0171e-21 A
    V(X46.NM) = 295.288 mV
    V(X46.X1.n50) = 0 V
    V(X46.X1.n51) = 370.281e-39 V
    V(X46.X1.n60) = 0 V
    V(X46.X1.n61) = 370.281e-39 V
    V(X46.X1.nBiStable) = 1.69807e-51 V
    V(X46.X1.nFeedback) = 169.807e-57 V
    V(X46.X1.nINeg) = 0 V
    V(X46.X1.nIPos) = 458.085 aV
    V(X46.X1.nRVFit) = 1.8 V
    V(X46.X1.nVCR1) = 295.288 mV
    V(X46.X1.nVCtrl) = 1.8 V
    V(X46.X1.nVDec) = -169.62e-54 V
    V(X46.X1.nVTMR) = 1.8 V
    I(X46.X1.vISample:p) = -47.0171e-21 A
    V(X47.NM) = 295.288 mV
    V(X47.X1.n50) = 0 V
    V(X47.X1.n51) = 191.018e-39 V
    V(X47.X1.n60) = 0 V
    V(X47.X1.n61) = 191.018e-39 V
    V(X47.X1.nBiStable) = 875.988e-54 V
    V(X47.X1.nFeedback) = 87.5988e-57 V
    V(X47.X1.nINeg) = 0 V
    V(X47.X1.nIPos) = 458.085 aV
    V(X47.X1.nRVFit) = 1.8 V
    V(X47.X1.nVCR1) = 295.288 mV
    V(X47.X1.nVCtrl) = 1.8 V
    V(X47.X1.nVDec) = -87.5024e-54 V
    V(X47.X1.nVTMR) = 1.8 V
    I(X47.X1.vISample:p) = -47.0171e-21 A
    V(X48.NM) = 295.288 mV
    V(X48.X1.n50) = 0 V
    V(X48.X1.n51) = -1.5768e-27 V
    V(X48.X1.n60) = 0 V
    V(X48.X1.n61) = -1.5768e-27 V
    V(X48.X1.nBiStable) = 648.529e-33 V
    V(X48.X1.nFeedback) = 64.8529e-36 V
    V(X48.X1.nINeg) = 0 V
    V(X48.X1.nIPos) = 403.967 pV
    V(X48.X1.nRVFit) = 1.8 V
    V(X48.X1.nVCR1) = 295.288 mV
    V(X48.X1.nVCtrl) = 1.8 V
    V(X48.X1.nVDec) = -64.7816e-33 V
    V(X48.X1.nVTMR) = 1.8 V
    I(X48.X1.vISample:p) = -40.3966 fA
    V(X49.NM) = 295.288 mV
    V(X49.X1.n50) = -744.428e-60 V
    V(X49.X1.n51) = 223.344e-39 V
    V(X49.X1.n60) = 0 V
    V(X49.X1.n61) = 223.344e-39 V
    V(X49.X1.nBiStable) = 1.02423e-51 V
    V(X49.X1.nFeedback) = 102.423e-57 V
    V(X49.X1.nINeg) = 0 V
    V(X49.X1.nIPos) = 458.083 aV
    V(X49.X1.nRVFit) = 1.8 V
    V(X49.X1.nVCR1) = 295.288 mV
    V(X49.X1.nVCtrl) = 1.8 V
    V(X49.X1.nVDec) = -102.31e-54 V
    V(X49.X1.nVTMR) = 1.8 V
    I(X49.X1.vISample:p) = -47.0171e-21 A
    V(X50.NM) = 295.288 mV
    V(X50.X1.n50) = -21.3821e-51 V
    V(X50.X1.n51) = 340.893e-39 V
    V(X50.X1.n60) = 0 V
    V(X50.X1.n61) = 340.893e-39 V
    V(X50.X1.nBiStable) = 5.05174e-48 V
    V(X50.X1.nFeedback) = 505.174e-54 V
    V(X50.X1.nINeg) = 0 V
    V(X50.X1.nIPos) = 458.085 aV
    V(X50.X1.nRVFit) = 1.8 V
    V(X50.X1.nVCR1) = 295.288 mV
    V(X50.X1.nVCtrl) = 1.8 V
    V(X50.X1.nVDec) = -504.619e-51 V
    V(X50.X1.nVTMR) = 1.8 V
    I(X50.X1.vISample:p) = -47.0171e-21 A
    V(X51.NM) = 295.288 mV
    V(X51.X1.n50) = -22.9609e-54 V
    V(X51.X1.n51) = 223.344e-39 V
    V(X51.X1.n60) = 0 V
    V(X51.X1.n61) = 223.344e-39 V
    V(X51.X1.nBiStable) = 1.02423e-51 V
    V(X51.X1.nFeedback) = 102.423e-57 V
    V(X51.X1.nINeg) = 0 V
    V(X51.X1.nIPos) = 458.085 aV
    V(X51.X1.nRVFit) = 1.8 V
    V(X51.X1.nVCR1) = 295.288 mV
    V(X51.X1.nVCtrl) = 1.8 V
    V(X51.X1.nVDec) = -102.311e-54 V
    V(X51.X1.nVTMR) = 1.8 V
    I(X51.X1.vISample:p) = -47.0171e-21 A
    V(X52.NM) = 295.288 mV
    V(X52.X1.n50) = -853.953e-60 V
    V(X52.X1.n51) = -64.6579e-51 V
    V(X52.X1.n60) = 0 V
    V(X52.X1.n61) = 0 V
    V(X52.X1.nBiStable) = 31.1151e-60 V
    V(X52.X1.nFeedback) = 3.11455e-63 V
    V(X52.X1.nINeg) = 0 V
    V(X52.X1.nIPos) = 458.085 aV
    V(X52.X1.nRVFit) = 1.8 V
    V(X52.X1.nVCR1) = 295.288 mV
    V(X52.X1.nVCtrl) = 1.8 V
    V(X52.X1.nVDec) = -3.11151e-60 V
    V(X52.X1.nVTMR) = 1.8 V
    I(X52.X1.vISample:p) = -47.0171e-21 A
    V(X53.NM) = 295.288 mV
    V(X53.X1.n50) = 0 V
    V(X53.X1.n51) = 343.832e-39 V
    V(X53.X1.n60) = 0 V
    V(X53.X1.n61) = 343.832e-39 V
    V(X53.X1.nBiStable) = 1.57678e-51 V
    V(X53.X1.nFeedback) = 157.678e-57 V
    V(X53.X1.nINeg) = 0 V
    V(X53.X1.nIPos) = 458.085 aV
    V(X53.X1.nRVFit) = 1.8 V
    V(X53.X1.nVCR1) = 295.288 mV
    V(X53.X1.nVCtrl) = 1.8 V
    V(X53.X1.nVDec) = -157.504e-54 V
    V(X53.X1.nVTMR) = 1.8 V
    I(X53.X1.vISample:p) = -47.0171e-21 A
    V(X54.NM) = 295.288 mV
    V(X54.X1.n50) = 0 V
    V(X54.X1.n51) = 340.893e-39 V
    V(X54.X1.n60) = 0 V
    V(X54.X1.n61) = 340.893e-39 V
    V(X54.X1.nBiStable) = 1.5633e-51 V
    V(X54.X1.nFeedback) = 156.33e-57 V
    V(X54.X1.nINeg) = 0 V
    V(X54.X1.nIPos) = 458.085 aV
    V(X54.X1.nRVFit) = 1.8 V
    V(X54.X1.nVCR1) = 295.288 mV
    V(X54.X1.nVCtrl) = 1.8 V
    V(X54.X1.nVDec) = -156.158e-54 V
    V(X54.X1.nVTMR) = 1.8 V
    I(X54.X1.vISample:p) = -47.0171e-21 A
    V(X55.NM) = 295.288 mV
    V(X55.X1.n50) = 0 V
    V(X55.X1.n51) = -367.38e-51 V
    V(X55.X1.n60) = 0 V
    V(X55.X1.n61) = 0 V
    V(X55.X1.nBiStable) = -1.68477e-63 V
    V(X55.X1.nFeedback) = -168.477e-69 V
    V(X55.X1.nINeg) = 0 V
    V(X55.X1.nIPos) = 458.085 aV
    V(X55.X1.nRVFit) = 1.8 V
    V(X55.X1.nVCR1) = 295.288 mV
    V(X55.X1.nVCtrl) = 1.8 V
    V(X55.X1.nVDec) = 168.291e-66 V
    V(X55.X1.nVTMR) = 1.8 V
    I(X55.X1.vISample:p) = -47.0171e-21 A
    V(X56.NM) = 295.288 mV
    V(X56.X1.n50) = -37.7615e-39 V
    V(X56.X1.n51) = 188.079e-39 V
    V(X56.X1.n60) = -37.7615e-39 V
    V(X56.X1.n61) = 188.079e-39 V
    V(X56.X1.nBiStable) = -13.6685e-48 V
    V(X56.X1.nFeedback) = -1.36685e-51 V
    V(X56.X1.nINeg) = 0 V
    V(X56.X1.nIPos) = 458.085 aV
    V(X56.X1.nRVFit) = 1.8 V
    V(X56.X1.nVCR1) = 295.288 mV
    V(X56.X1.nVCtrl) = 1.8 V
    V(X56.X1.nVDec) = 1.36535e-48 V
    V(X56.X1.nVTMR) = 1.8 V
    I(X56.X1.vISample:p) = -47.0171e-21 A
    V(X57.NM) = 295.288 mV
    V(X57.X1.n50) = 0 V
    V(X57.X1.n51) = -64.6579e-51 V
    V(X57.X1.n60) = 0 V
    V(X57.X1.n61) = 0 V
    V(X57.X1.nBiStable) = -296.44e-66 V
    V(X57.X1.nFeedback) = -29.6302e-69 V
    V(X57.X1.nINeg) = 0 V
    V(X57.X1.nIPos) = 458.085 aV
    V(X57.X1.nRVFit) = 1.8 V
    V(X57.X1.nVCR1) = 295.288 mV
    V(X57.X1.nVCtrl) = 1.8 V
    V(X57.X1.nVDec) = 29.6188e-66 V
    V(X57.X1.nVTMR) = 1.8 V
    I(X57.X1.vISample:p) = -47.0171e-21 A
    V(X58.NM) = 295.288 mV
    V(X58.X1.n50) = -22.9609e-54 V
    V(X58.X1.n51) = -399.721e-39 V
    V(X58.X1.n60) = 0 V
    V(X58.X1.n61) = -399.721e-39 V
    V(X58.X1.nBiStable) = 2.18323e-51 V
    V(X58.X1.nFeedback) = 218.323e-57 V
    V(X58.X1.nINeg) = 0 V
    V(X58.X1.nIPos) = 458.085 aV
    V(X58.X1.nRVFit) = 1.8 V
    V(X58.X1.nVCR1) = 295.288 mV
    V(X58.X1.nVCtrl) = 1.8 V
    V(X58.X1.nVDec) = -218.083e-54 V
    V(X58.X1.nVTMR) = 1.8 V
    I(X58.X1.vISample:p) = -47.0171e-21 A
    V(X59.NM) = 295.288 mV
    V(X59.X1.n50) = 175.623e-39 V
    V(X59.X1.n51) = 405.572e-51 V
    V(X59.X1.n60) = 175.623e-39 V
    V(X59.X1.n61) = 0 V
    V(X59.X1.nBiStable) = -1.8333e-48 V
    V(X59.X1.nFeedback) = -183.33e-54 V
    V(X59.X1.nINeg) = 0 V
    V(X59.X1.nIPos) = 458.085 aV
    V(X59.X1.nRVFit) = 1.8 V
    V(X59.X1.nVCR1) = 295.288 mV
    V(X59.X1.nVCtrl) = 1.8 V
    V(X59.X1.nVDec) = 183.129e-51 V
    V(X59.X1.nVTMR) = 1.8 V
    I(X59.X1.vISample:p) = -47.0171e-21 A
    V(X60.NM) = 295.288 mV
    V(X60.X1.n50) = 256.585e-51 V
    V(X60.X1.n51) = 399.725e-51 V
    V(X60.X1.n60) = 0 V
    V(X60.X1.n61) = 0 V
    V(X60.X1.nBiStable) = 15.2992e-48 V
    V(X60.X1.nFeedback) = 1.52992e-51 V
    V(X60.X1.nINeg) = 0 V
    V(X60.X1.nIPos) = 458.085 aV
    V(X60.X1.nRVFit) = 1.8 V
    V(X60.X1.nVCR1) = 295.288 mV
    V(X60.X1.nVCtrl) = 1.8 V
    V(X60.X1.nVDec) = -1.52824e-48 V
    V(X60.X1.nVTMR) = 1.8 V
    I(X60.X1.vISample:p) = -47.0171e-21 A
    V(X61.NM) = 295.288 mV
    V(X61.X1.n50) = 0 V
    V(X61.X1.n51) = 47.0198e-39 V
    V(X61.X1.n60) = 0 V
    V(X61.X1.n61) = 47.0198e-39 V
    V(X61.X1.nBiStable) = 215.628e-54 V
    V(X61.X1.nFeedback) = 21.5628e-57 V
    V(X61.X1.nINeg) = 0 V
    V(X61.X1.nIPos) = 458.085 aV
    V(X61.X1.nRVFit) = 1.8 V
    V(X61.X1.nVCR1) = 295.288 mV
    V(X61.X1.nVCtrl) = 1.8 V
    V(X61.X1.nVDec) = -21.5391e-54 V
    V(X61.X1.nVTMR) = 1.8 V
    I(X61.X1.vISample:p) = -47.0171e-21 A
    V(X62.NM) = 295.288 mV
    V(X62.X1.n50) = 424.97e-51 V
    V(X62.X1.n51) = 70.5297e-39 V
    V(X62.X1.n60) = 0 V
    V(X62.X1.n61) = 70.5297e-39 V
    V(X62.X1.nBiStable) = 467.178e-51 V
    V(X62.X1.nFeedback) = 46.7178e-54 V
    V(X62.X1.nINeg) = 0 V
    V(X62.X1.nIPos) = 458.085 aV
    V(X62.X1.nRVFit) = 1.8 V
    V(X62.X1.nVCR1) = 295.288 mV
    V(X62.X1.nVCtrl) = 1.8 V
    V(X62.X1.nVDec) = -46.6664e-51 V
    V(X62.X1.nVTMR) = 1.8 V
    I(X62.X1.vISample:p) = -47.0171e-21 A
    V(X63.NM) = 295.288 mV
    V(X63.X1.n50) = 149.675e-51 V
    V(X63.X1.n51) = 70.5297e-39 V
    V(X63.X1.n60) = 0 V
    V(X63.X1.n61) = 70.5297e-39 V
    V(X63.X1.nBiStable) = 4.81882e-48 V
    V(X63.X1.nFeedback) = 481.882e-54 V
    V(X63.X1.nINeg) = 0 V
    V(X63.X1.nIPos) = 458.085 aV
    V(X63.X1.nRVFit) = 1.8 V
    V(X63.X1.nVCR1) = 295.288 mV
    V(X63.X1.nVCtrl) = 1.8 V
    V(X63.X1.nVDec) = -481.352e-51 V
    V(X63.X1.nVTMR) = 1.8 V
    I(X63.X1.vISample:p) = -47.0171e-21 A
    V(X64.NM) = 295.288 mV
    V(X64.X1.n50) = -218.953e-51 V
    V(X64.X1.n51) = 188.079e-39 V
    V(X64.X1.n60) = 0 V
    V(X64.X1.n61) = 188.079e-39 V
    V(X64.X1.nBiStable) = 862.506e-54 V
    V(X64.X1.nFeedback) = 86.2506e-57 V
    V(X64.X1.nINeg) = 0 V
    V(X64.X1.nIPos) = 458.082 aV
    V(X64.X1.nRVFit) = 1.8 V
    V(X64.X1.nVCR1) = 295.288 mV
    V(X64.X1.nVCtrl) = 1.8 V
    V(X64.X1.nVDec) = -86.1557e-54 V
    V(X64.X1.nVTMR) = 1.8 V
    I(X64.X1.vISample:p) = -47.0171e-21 A
    V(X65.NM) = 295.288 mV
    V(X65.X1.n50) = 0 V
    V(X65.X1.n51) = -387.969e-51 V
    V(X65.X1.n60) = 0 V
    V(X65.X1.n61) = 0 V
    V(X65.X1.nBiStable) = -1.77582e-63 V
    V(X65.X1.nFeedback) = -177.582e-69 V
    V(X65.X1.nINeg) = 0 V
    V(X65.X1.nIPos) = 457.235 aV
    V(X65.X1.nRVFit) = 1.8 V
    V(X65.X1.nVCR1) = 295.288 mV
    V(X65.X1.nVCtrl) = 1.8 V
    V(X65.X1.nVDec) = 177.393e-66 V
    V(X65.X1.nVTMR) = 1.8 V
    I(X65.X1.vISample:p) = -47.0171e-21 A
    V(X66.NM) = 295.288 mV
    V(X66.X1.n50) = 0 V
    V(X66.X1.n51) = 323.261e-39 V
    V(X66.X1.n60) = 0 V
    V(X66.X1.n61) = 323.261e-39 V
    V(X66.X1.nBiStable) = 1.47969e-51 V
    V(X66.X1.nFeedback) = 147.969e-57 V
    V(X66.X1.nINeg) = 0 V
    V(X66.X1.nIPos) = 457.235 aV
    V(X66.X1.nRVFit) = 1.8 V
    V(X66.X1.nVCR1) = 295.288 mV
    V(X66.X1.nVCtrl) = 1.8 V
    V(X66.X1.nVDec) = -147.806e-54 V
    V(X66.X1.nVTMR) = 1.8 V
    I(X66.X1.vISample:p) = -47.0171e-21 A
    V(X67.NM) = 295.288 mV
    V(X67.X1.n50) = 0 V
    V(X67.X1.n51) = 205.712e-39 V
    V(X67.X1.n60) = 0 V
    V(X67.X1.n61) = 205.712e-39 V
    V(X67.X1.nBiStable) = 941.62e-54 V
    V(X67.X1.nFeedback) = 94.162e-57 V
    V(X67.X1.nINeg) = 0 V
    V(X67.X1.nIPos) = 457.235 aV
    V(X67.X1.nRVFit) = 1.8 V
    V(X67.X1.nVCR1) = 295.288 mV
    V(X67.X1.nVCtrl) = 1.8 V
    V(X67.X1.nVDec) = -94.0584e-54 V
    V(X67.X1.nVTMR) = 1.8 V
    I(X67.X1.vISample:p) = -47.0171e-21 A
    V(X68.NM) = 295.288 mV
    V(X68.X1.n50) = 437.906e-51 V
    V(X68.X1.n51) = -387.969e-51 V
    V(X68.X1.n60) = 0 V
    V(X68.X1.n61) = 0 V
    V(X68.X1.nBiStable) = 11.2014e-60 V
    V(X68.X1.nFeedback) = 1.13947e-63 V
    V(X68.X1.nINeg) = 0 V
    V(X68.X1.nIPos) = 457.235 aV
    V(X68.X1.nRVFit) = 1.8 V
    V(X68.X1.nVCR1) = 295.288 mV
    V(X68.X1.nVCtrl) = 1.8 V
    V(X68.X1.nVDec) = -1.05013e-60 V
    V(X68.X1.nVTMR) = 1.8 V
    I(X68.X1.vISample:p) = -47.0171e-21 A
    V(X69.NM) = 295.288 mV
    V(X69.X1.n50) = 0 V
    V(X69.X1.n51) = 17.6324e-39 V
    V(X69.X1.n60) = 0 V
    V(X69.X1.n61) = 17.6324e-39 V
    V(X69.X1.nBiStable) = 80.7103e-54 V
    V(X69.X1.nFeedback) = 8.07103e-57 V
    V(X69.X1.nINeg) = 0 V
    V(X69.X1.nIPos) = 457.235 aV
    V(X69.X1.nRVFit) = 1.8 V
    V(X69.X1.nVCR1) = 295.288 mV
    V(X69.X1.nVCtrl) = 1.8 V
    V(X69.X1.nVDec) = -8.06215e-54 V
    V(X69.X1.nVTMR) = 1.8 V
    I(X69.X1.vISample:p) = -47.0171e-21 A
    V(X70.NM) = 295.288 mV
    V(X70.X1.n50) = 0 V
    V(X70.X1.n51) = 323.261e-39 V
    V(X70.X1.n60) = 0 V
    V(X70.X1.n61) = 323.261e-39 V
    V(X70.X1.nBiStable) = 1.47969e-51 V
    V(X70.X1.nFeedback) = 147.969e-57 V
    V(X70.X1.nINeg) = 0 V
    V(X70.X1.nIPos) = 457.235 aV
    V(X70.X1.nRVFit) = 1.8 V
    V(X70.X1.nVCR1) = 295.288 mV
    V(X70.X1.nVCtrl) = 1.8 V
    V(X70.X1.nVDec) = -147.806e-54 V
    V(X70.X1.nVTMR) = 1.8 V
    I(X70.X1.vISample:p) = -47.0171e-21 A
    V(X71.NM) = 295.288 mV
    V(X71.X1.n50) = 256.585e-51 V
    V(X71.X1.n51) = -99.9155e-51 V
    V(X71.X1.n60) = 0 V
    V(X71.X1.n61) = 0 V
    V(X71.X1.nBiStable) = 25.5263e-48 V
    V(X71.X1.nFeedback) = 2.55263e-51 V
    V(X71.X1.nINeg) = 0 V
    V(X71.X1.nIPos) = 457.235 aV
    V(X71.X1.nRVFit) = 1.8 V
    V(X71.X1.nVCR1) = 295.288 mV
    V(X71.X1.nVCtrl) = 1.8 V
    V(X71.X1.nVDec) = -2.54982e-48 V
    V(X71.X1.nVTMR) = 1.8 V
    I(X71.X1.vISample:p) = -47.0171e-21 A
    V(X72.NM) = 295.288 mV
    V(X72.X1.n50) = 0 V
    V(X72.X1.n51) = 326.2e-39 V
    V(X72.X1.n60) = 0 V
    V(X72.X1.n61) = 326.2e-39 V
    V(X72.X1.nBiStable) = 1.49314e-51 V
    V(X72.X1.nFeedback) = 149.314e-57 V
    V(X72.X1.nINeg) = 0 V
    V(X72.X1.nIPos) = 457.235 aV
    V(X72.X1.nRVFit) = 1.8 V
    V(X72.X1.nVCR1) = 295.288 mV
    V(X72.X1.nVCtrl) = 1.8 V
    V(X72.X1.nVDec) = -149.15e-54 V
    V(X72.X1.nVTMR) = 1.8 V
    I(X72.X1.vISample:p) = -47.0171e-21 A
    V(X73.NM) = 295.288 mV
    V(X73.X1.n50) = 406.26e-51 V
    V(X73.X1.n51) = 205.712e-39 V
    V(X73.X1.n60) = 0 V
    V(X73.X1.n61) = 205.712e-39 V
    V(X73.X1.nBiStable) = 4.05387e-48 V
    V(X73.X1.nFeedback) = 405.387e-54 V
    V(X73.X1.nINeg) = 0 V
    V(X73.X1.nIPos) = 457.235 aV
    V(X73.X1.nRVFit) = 1.8 V
    V(X73.X1.nVCR1) = 295.288 mV
    V(X73.X1.nVCtrl) = 1.8 V
    V(X73.X1.nVDec) = -404.941e-51 V
    V(X73.X1.nVTMR) = 1.8 V
    I(X73.X1.vISample:p) = -47.0171e-21 A
    V(X74.NM) = 295.288 mV
    V(X74.X1.n50) = 187.094e-51 V
    V(X74.X1.n51) = 323.261e-39 V
    V(X74.X1.n60) = 0 V
    V(X74.X1.n61) = 323.261e-39 V
    V(X74.X1.nBiStable) = 943.024e-51 V
    V(X74.X1.nFeedback) = 94.3024e-54 V
    V(X74.X1.nINeg) = 0 V
    V(X74.X1.nIPos) = 457.235 aV
    V(X74.X1.nRVFit) = 1.8 V
    V(X74.X1.nVCR1) = 295.288 mV
    V(X74.X1.nVCtrl) = 1.8 V
    V(X74.X1.nVDec) = -94.1987e-51 V
    V(X74.X1.nVTMR) = 1.8 V
    I(X74.X1.vISample:p) = -47.0171e-21 A
    V(X75.NM) = 295.288 mV
    V(X75.X1.n50) = 437.906e-51 V
    V(X75.X1.n51) = 205.712e-39 V
    V(X75.X1.n60) = 0 V
    V(X75.X1.n61) = 205.712e-39 V
    V(X75.X1.nBiStable) = 941.62e-54 V
    V(X75.X1.nFeedback) = 94.162e-57 V
    V(X75.X1.nINeg) = 0 V
    V(X75.X1.nIPos) = 457.235 aV
    V(X75.X1.nRVFit) = 1.8 V
    V(X75.X1.nVCR1) = 295.288 mV
    V(X75.X1.nVCtrl) = 1.8 V
    V(X75.X1.nVDec) = -94.0584e-54 V
    V(X75.X1.nVTMR) = 1.8 V
    I(X75.X1.vISample:p) = -47.0171e-21 A
    V(X76.NM) = 295.288 mV
    V(X76.X1.n50) = -11.4805e-54 V
    V(X76.X1.n51) = -387.969e-51 V
    V(X76.X1.n60) = 0 V
    V(X76.X1.n61) = 0 V
    V(X76.X1.nBiStable) = -1.77586e-63 V
    V(X76.X1.nFeedback) = -177.586e-69 V
    V(X76.X1.nINeg) = 0 V
    V(X76.X1.nIPos) = 457.235 aV
    V(X76.X1.nRVFit) = 1.8 V
    V(X76.X1.nVCR1) = 295.288 mV
    V(X76.X1.nVCtrl) = 1.8 V
    V(X76.X1.nVDec) = 177.393e-66 V
    V(X76.X1.nVTMR) = 1.8 V
    I(X76.X1.vISample:p) = -47.0171e-21 A
    V(X77.NM) = 295.288 mV
    V(X77.X1.n50) = 0 V
    V(X77.X1.n51) = 326.2e-39 V
    V(X77.X1.n60) = 0 V
    V(X77.X1.n61) = 326.2e-39 V
    V(X77.X1.nBiStable) = 1.49314e-51 V
    V(X77.X1.nFeedback) = 149.314e-57 V
    V(X77.X1.nINeg) = 0 V
    V(X77.X1.nIPos) = 457.235 aV
    V(X77.X1.nRVFit) = 1.8 V
    V(X77.X1.nVCR1) = 295.288 mV
    V(X77.X1.nVCtrl) = 1.8 V
    V(X77.X1.nVDec) = -149.15e-54 V
    V(X77.X1.nVTMR) = 1.8 V
    I(X77.X1.vISample:p) = -47.0171e-21 A
    V(X78.NM) = 295.288 mV
    V(X78.X1.n50) = 222.935e-39 V
    V(X78.X1.n51) = -111.671e-51 V
    V(X78.X1.n60) = 222.935e-39 V
    V(X78.X1.n61) = 0 V
    V(X78.X1.nBiStable) = -28.4725e-48 V
    V(X78.X1.nFeedback) = -2.84725e-51 V
    V(X78.X1.nINeg) = 0 V
    V(X78.X1.nIPos) = 457.235 aV
    V(X78.X1.nRVFit) = 1.8 V
    V(X78.X1.nVCR1) = 295.288 mV
    V(X78.X1.nVCtrl) = 1.8 V
    V(X78.X1.nVDec) = 2.84412e-48 V
    V(X78.X1.nVTMR) = 1.8 V
    I(X78.X1.vISample:p) = -47.0171e-21 A
    V(X79.NM) = 295.288 mV
    V(X79.X1.n50) = -128.293e-51 V
    V(X79.X1.n51) = 208.65e-39 V
    V(X79.X1.n60) = 0 V
    V(X79.X1.n61) = 208.65e-39 V
    V(X79.X1.nBiStable) = 12.3912e-48 V
    V(X79.X1.nFeedback) = 1.23912e-51 V
    V(X79.X1.nINeg) = 0 V
    V(X79.X1.nIPos) = 457.235 aV
    V(X79.X1.nRVFit) = 1.8 V
    V(X79.X1.nVCR1) = 295.288 mV
    V(X79.X1.nVCtrl) = 1.8 V
    V(X79.X1.nVDec) = -1.23776e-48 V
    V(X79.X1.nVTMR) = 1.8 V
    I(X79.X1.vISample:p) = -47.0171e-21 A
    V(X80.NM) = 295.288 mV
    V(X80.X1.n50) = 0 V
    V(X80.X1.n51) = 397.226e-30 V
    V(X80.X1.n60) = 0 V
    V(X80.X1.n61) = 397.226e-30 V
    V(X80.X1.nBiStable) = 1.55157e-30 V
    V(X80.X1.nFeedback) = 155.157e-36 V
    V(X80.X1.nINeg) = 0 V
    V(X80.X1.nIPos) = 403.966 pV
    V(X80.X1.nRVFit) = 1.8 V
    V(X80.X1.nVCR1) = 295.288 mV
    V(X80.X1.nVCtrl) = 1.8 V
    V(X80.X1.nVDec) = -154.986e-33 V
    V(X80.X1.nVTMR) = 1.8 V
    I(X80.X1.vISample:p) = -40.3967 fA
    V(X81.NM) = 295.288 mV
    V(X81.X1.n50) = -91.8437e-54 V
    V(X81.X1.n51) = -235.12e-51 V
    V(X81.X1.n60) = 0 V
    V(X81.X1.n61) = 0 V
    V(X81.X1.nBiStable) = -1.07626e-63 V
    V(X81.X1.nFeedback) = -107.618e-69 V
    V(X81.X1.nINeg) = 0 V
    V(X81.X1.nIPos) = 457.235 aV
    V(X81.X1.nRVFit) = 1.8 V
    V(X81.X1.nVCR1) = 295.288 mV
    V(X81.X1.nVCtrl) = 1.8 V
    V(X81.X1.nVDec) = 107.505e-66 V
    V(X81.X1.nVTMR) = 1.8 V
    I(X81.X1.vISample:p) = -47.0171e-21 A
    V(X82.NM) = 295.288 mV
    V(X82.X1.n50) = 128.293e-51 V
    V(X82.X1.n51) = -393.815e-51 V
    V(X82.X1.n60) = 0 V
    V(X82.X1.n61) = 0 V
    V(X82.X1.nBiStable) = 5.53067e-48 V
    V(X82.X1.nFeedback) = 553.067e-54 V
    V(X82.X1.nINeg) = 0 V
    V(X82.X1.nIPos) = 457.235 aV
    V(X82.X1.nRVFit) = 1.8 V
    V(X82.X1.nVCR1) = 295.288 mV
    V(X82.X1.nVCtrl) = 1.8 V
    V(X82.X1.nVDec) = -552.459e-51 V
    V(X82.X1.nVTMR) = 1.8 V
    I(X82.X1.vISample:p) = -47.0171e-21 A
    V(X83.NM) = 295.288 mV
    V(X83.X1.n50) = 0 V
    V(X83.X1.n51) = -387.969e-51 V
    V(X83.X1.n60) = 0 V
    V(X83.X1.n61) = 0 V
[...]
          n : V(X170.X1.nVCR1) = 295.288 mV
          v = 0 V
          i = -47.017e-21 A
        pwr = -0 W

Instance: X171.X1.vISample of MTJT
Model: vsource
Primitive: vsource
          p : V(NM171) = 295.288 mV
          n : V(X171.X1.nVCR1) = 295.288 mV
          v = 0 V
          i = -47.0171e-21 A
        pwr = -0 W

Instance: X172.X1.vISample of MTJT
Model: vsource
Primitive: vsource
          p : V(NM172) = 295.288 mV
          n : V(X172.X1.nVCR1) = 295.288 mV
          v = 0 V
          i = -47.0171e-21 A
        pwr = -0 W

Instance: X173.X1.vISample of MTJT
Model: vsource
Primitive: vsource
          p : V(NM173) = 295.288 mV
          n : V(X173.X1.nVCR1) = 295.288 mV
          v = 0 V
          i = -47.0171e-21 A
        pwr = -0 W

Instance: X174.X1.vISample of MTJT
Model: vsource
Primitive: vsource
          p : V(NM174) = 295.288 mV
          n : V(X174.X1.nVCR1) = 295.288 mV
          v = 0 V
          i = -47.0171e-21 A
        pwr = -0 W

Instance: X175.X1.vISample of MTJT
Model: vsource
Primitive: vsource
          p : V(NM175) = 295.288 mV
          n : V(X175.X1.nVCR1) = 295.288 mV
          v = 0 V
          i = -47.0171e-21 A
        pwr = -0 W

Instance: X176.X1.vISample of MTJT
Model: vsource
Primitive: vsource
          p : V(NM176) = 295.288 mV
          n : V(X176.X1.nVCR1) = 295.288 mV
          v = 0 V
          i = -40.3966 fA
        pwr = -0 W

Instance: X177.X1.vISample of MTJT
Model: vsource
Primitive: vsource
          p : V(NM177) = 295.288 mV
          n : V(X177.X1.nVCR1) = 295.288 mV
          v = 0 V
          i = -47.0171e-21 A
        pwr = -0 W

Instance: X178.X1.vISample of MTJT
Model: vsource
Primitive: vsource
          p : V(NM178) = 295.288 mV
          n : V(X178.X1.nVCR1) = 295.288 mV
          v = 0 V
          i = -47.0171e-21 A
        pwr = -0 W

Instance: X179.X1.vISample of MTJT
Model: vsource
Primitive: vsource
          p : V(NM179) = 295.288 mV
          n : V(X179.X1.nVCR1) = 295.288 mV
          v = 0 V
          i = -47.0171e-21 A
        pwr = -0 W

Instance: X180.X1.vISample of MTJT
Model: vsource
Primitive: vsource
          p : V(NM180) = 295.288 mV
          n : V(X180.X1.nVCR1) = 295.288 mV
          v = 0 V
          i = -47.0171e-21 A
        pwr = -0 W

Instance: X181.X1.vISample of MTJT
Model: vsource
Primitive: vsource
          p : V(NM181) = 295.288 mV
          n : V(X181.X1.nVCR1) = 295.288 mV
          v = 0 V
          i = -47.0171e-21 A
        pwr = -0 W

Instance: X182.X1.vISample of MTJT
Model: vsource
Primitive: vsource
          p : V(NM182) = 295.288 mV
          n : V(X182.X1.nVCR1) = 295.288 mV
          v = 0 V
          i = -47.0171e-21 A
        pwr = -0 W

Instance: X183.X1.vISample of MTJT
Model: vsource
Primitive: vsource
          p : V(NM183) = 295.288 mV
          n : V(X183.X1.nVCR1) = 295.288 mV
          v = 0 V
          i = -47.0171e-21 A
        pwr = -0 W

Instance: X184.X1.vISample of MTJT
Model: vsource
Primitive: vsource
          p : V(NM184) = 295.288 mV
          n : V(X184.X1.nVCR1) = 295.288 mV
          v = 0 V
          i = -47.0171e-21 A
        pwr = -0 W

Instance: X185.X1.vISample of MTJT
Model: vsource
Primitive: vsource
          p : V(NM185) = 295.288 mV
          n : V(X185.X1.nVCR1) = 295.288 mV
          v = 0 V
          i = -47.0171e-21 A
        pwr = -0 W

Instance: X186.X1.vISample of MTJT
Model: vsource
Primitive: vsource
          p : V(NM186) = 295.288 mV
          n : V(X186.X1.nVCR1) = 295.288 mV
          v = 0 V
          i = -47.0171e-21 A
        pwr = -0 W

Instance: X187.X1.vISample of MTJT
Model: vsource
Primitive: vsource
          p : V(NM187) = 295.288 mV
          n : V(X187.X1.nVCR1) = 295.288 mV
          v = 0 V
          i = -47.0171e-21 A
        pwr = -0 W

Instance: X188.X1.vISample of MTJT
Model: vsource
Primitive: vsource
          p : V(NM188) = 295.288 mV
          n : V(X188.X1.nVCR1) = 295.288 mV
          v = 0 V
          i = -47.0171e-21 A
        pwr = -0 W

Instance: X189.X1.vISample of MTJT
Model: vsource
Primitive: vsource
          p : V(NM189) = 295.288 mV
          n : V(X189.X1.nVCR1) = 295.288 mV
          v = 0 V
          i = -47.0171e-21 A
        pwr = -0 W

Instance: X190.X1.vISample of MTJT
Model: vsource
Primitive: vsource
          p : V(NM190) = 295.288 mV
          n : V(X190.X1.nVCR1) = 295.288 mV
          v = 0 V
          i = -47.0171e-21 A
        pwr = -0 W

Instance: X191.X1.vISample of MTJT
Model: vsource
Primitive: vsource
          p : V(NM191) = 295.288 mV
          n : V(X191.X1.nVCR1) = 295.288 mV
          v = 0 V
          i = -47.0171e-21 A
        pwr = -0 W

Instance: X192.X1.vISample of MTJT
Model: vsource
Primitive: vsource
          p : V(NM192) = 295.288 mV
          n : V(X192.X1.nVCR1) = 295.288 mV
          v = 0 V
          i = -47.0171e-21 A
        pwr = -0 W

Instance: X193.X1.vISample of MTJT
Model: vsource
Primitive: vsource
          p : V(NM193) = 295.288 mV
          n : V(X193.X1.nVCR1) = 295.288 mV
          v = 0 V
          i = -47.0171e-21 A
        pwr = -0 W

Instance: X194.X1.vISample of MTJT
Model: vsource
Primitive: vsource
          p : V(NM194) = 295.288 mV
          n : V(X194.X1.nVCR1) = 295.288 mV
          v = 0 V
          i = -47.0171e-21 A
        pwr = -0 W

Instance: X195.X1.vISample of MTJT
Model: vsource
Primitive: vsource
          p : V(NM195) = 295.288 mV
          n : V(X195.X1.nVCR1) = 295.288 mV
          v = 0 V
          i = -47.0171e-21 A
        pwr = -0 W

Instance: X196.X1.vISample of MTJT
Model: vsource
Primitive: vsource
          p : V(NM196) = 295.288 mV
          n : V(X196.X1.nVCR1) = 295.288 mV
          v = 0 V
          i = -47.0171e-21 A
        pwr = -0 W

Instance: X197.X1.vISample of MTJT
Model: vsource
Primitive: vsource
          p : V(NM197) = 295.288 mV
          n : V(X197.X1.nVCR1) = 295.288 mV
          v = 0 V
          i = -47.0171e-21 A
        pwr = -0 W

Instance: X198.X1.vISample of MTJT
Model: vsource
Primitive: vsource
          p : V(NM198) = 295.288 mV
          n : V(X198.X1.nVCR1) = 295.288 mV
          v = 0 V
          i = -47.0171e-21 A
        pwr = -0 W

Instance: X199.X1.vISample of MTJT
Model: vsource
Primitive: vsource
          p : V(NM199) = 295.288 mV
          n : V(X199.X1.nVCR1) = 295.288 mV
          v = 0 V
          i = -47.0171e-21 A
        pwr = -0 W

Instance: X200.X1.vISample of MTJT
Model: vsource
Primitive: vsource
          p : V(NM200) = 295.288 mV
          n : V(X200.X1.nVCR1) = 295.288 mV
          v = 0 V
          i = -47.0171e-21 A
        pwr = -0 W

Instance: X201.X1.vISample of MTJT
Model: vsource
Primitive: vsource
          p : V(NM201) = 295.288 mV
          n : V(X201.X1.nVCR1) = 295.288 mV
          v = 0 V
          i = -47.0171e-21 A
        pwr = -0 W

Instance: X202.X1.vISample of MTJT
Model: vsource
Primitive: vsource
          p : V(NM202) = 295.288 mV
          n : V(X202.X1.nVCR1) = 295.288 mV
          v = 0 V
          i = -47.0171e-21 A
        pwr = -0 W

Instance: X203.X1.vISample of MTJT
Model: vsource
Primitive: vsource
          p : V(NM203) = 295.288 mV
          n : V(X203.X1.nVCR1) = 295.288 mV
          v = 0 V
          i = -47.0171e-21 A
        pwr = -0 W

Instance: X204.X1.vISample of MTJT
Model: vsource
Primitive: vsource
          p : V(NM204) = 295.288 mV
          n : V(X204.X1.nVCR1) = 295.288 mV
          v = 0 V
          i = -47.0171e-21 A
        pwr = -0 W

Instance: X205.X1.vISample of MTJT
Model: vsource
Primitive: vsource
          p : V(NM205) = 295.288 mV
          n : V(X205.X1.nVCR1) = 295.288 mV
          v = 0 V
          i = -47.0171e-21 A
        pwr = -0 W

Instance: X206.X1.vISample of MTJT
Model: vsource
Primitive: vsource
          p : V(NM206) = 295.288 mV
          n : V(X206.X1.nVCR1) = 295.288 mV
          v = 0 V
          i = -47.0171e-21 A
        pwr = -0 W

Instance: X207.X1.vISample of MTJT
Model: vsource
Primitive: vsource
          p : V(NM207) = 295.288 mV
          n : V(X207.X1.nVCR1) = 295.288 mV
          v = 0 V
          i = -47.0171e-21 A
        pwr = -0 W

Instance: X208.X1.vISample of MTJT
Model: vsource
Primitive: vsource
          p : V(NM208) = 295.288 mV
          n : V(X208.X1.nVCR1) = 295.288 mV
          v = 0 V
          i = -40.3966 fA
        pwr = -0 W

Instance: X209.X1.vISample of MTJT
Model: vsource
Primitive: vsource
          p : V(NM209) = 295.288 mV
          n : V(X209.X1.nVCR1) = 295.288 mV
          v = 0 V
          i = -47.0171e-21 A
        pwr = -0 W

Instance: X210.X1.vISample of MTJT
Model: vsource
Primitive: vsource
          p : V(NM210) = 295.288 mV
          n : V(X210.X1.nVCR1) = 295.288 mV
          v = 0 V
          i = -47.0171e-21 A
        pwr = -0 W

Instance: X211.X1.vISample of MTJT
Model: vsource
Primitive: vsource
          p : V(NM211) = 295.288 mV
          n : V(X211.X1.nVCR1) = 295.288 mV
          v = 0 V
          i = -47.0171e-21 A
        pwr = -0 W

Instance: X212.X1.vISample of MTJT
Model: vsource
Primitive: vsource
          p : V(NM212) = 295.288 mV
          n : V(X212.X1.nVCR1) = 295.288 mV
          v = 0 V
          i = -47.0171e-21 A
        pwr = -0 W

Instance: X213.X1.vISample of MTJT
Model: vsource
Primitive: vsource
          p : V(NM213) = 295.288 mV
          n : V(X213.X1.nVCR1) = 295.288 mV
          v = 0 V
          i = -47.0171e-21 A
        pwr = -0 W

Instance: X214.X1.vISample of MTJT
Model: vsource
Primitive: vsource
          p : V(NM214) = 295.288 mV
          n : V(X214.X1.nVCR1) = 295.288 mV
          v = 0 V
          i = -47.0171e-21 A
        pwr = -0 W

Instance: X215.X1.vISample of MTJT
Model: vsource
Primitive: vsource
          p : V(NM215) = 295.288 mV
          n : V(X215.X1.nVCR1) = 295.288 mV
          v = 0 V
          i = -47.0171e-21 A
        pwr = -0 W

Instance: X216.X1.vISample of MTJT
Model: vsource
Primitive: vsource
          p : V(NM216) = 295.288 mV
          n : V(X216.X1.nVCR1) = 295.288 mV
          v = 0 V
          i = -47.0171e-21 A
        pwr = -0 W

Instance: X217.X1.vISample of MTJT
Model: vsource
Primitive: vsource
          p : V(NM217) = 295.288 mV
          n : V(X217.X1.nVCR1) = 295.288 mV
          v = 0 V
          i = -47.0171e-21 A
        pwr = -0 W

Instance: X218.X1.vISample of MTJT
Model: vsource
Primitive: vsource
          p : V(NM218) = 295.288 mV
          n : V(X218.X1.nVCR1) = 295.288 mV
          v = 0 V
          i = -47.0171e-21 A
        pwr = -0 W

Instance: X219.X1.vISample of MTJT
Model: vsource
Primitive: vsource
          p : V(NM219) = 295.288 mV
          n : V(X219.X1.nVCR1) = 295.288 mV
          v = 0 V
          i = -47.0171e-21 A
        pwr = -0 W

Instance: X220.X1.vISample of MTJT
Model: vsource
Primitive: vsource
          p : V(NM220) = 295.288 mV
          n : V(X220.X1.nVCR1) = 295.288 mV
          v = 0 V
          i = -47.0171e-21 A
        pwr = -0 W

Instance: X221.X1.vISample of MTJT
Model: vsource
Primitive: vsource
          p : V(NM221) = 295.288 mV
          n : V(X221.X1.nVCR1) = 295.288 mV
          v = 0 V
          i = -47.0171e-21 A
        pwr = -0 W

Instance: X222.X1.vISample of MTJT
Model: vsource
Primitive: vsource
          p : V(NM222) = 295.288 mV
          n : V(X222.X1.nVCR1) = 295.288 mV
          v = 0 V
          i = -47.0171e-21 A
        pwr = -0 W

Instance: X223.X1.vISample of MTJT
Model: vsource
Primitive: vsource
          p : V(NM223) = 295.288 mV
          n : V(X223.X1.nVCR1) = 295.288 mV
          v = 0 V
          i = -47.0171e-21 A
        pwr = -0 W

Instance: X224.X1.vISample of MTJT
Model: vsource
Primitive: vsource
          p : V(NM224) = 295.288 mV
          n : V(X224.X1.nVCR1) = 295.288 mV
          v = 0 V
          i = -47.0171e-21 A
        pwr = -0 W

Instance: X225.X1.vISample of MTJT
Model: vsource
Primitive: vsource
          p : V(NM225) = 295.288 mV
          n : V(X225.X1.nVCR1) = 295.288 mV
          v = 0 V
          i = -47.0171e-21 A
        pwr = -0 W

Instance: X226.X1.vISample of MTJT
Model: vsource
Primitive: vsource
          p : V(NM226) = 295.288 mV
          n : V(X226.X1.nVCR1) = 295.288 mV
          v = 0 V
          i = -47.0171e-21 A
        pwr = -0 W

Instance: X227.X1.vISample of MTJT
Model: vsource
Primitive: vsource
          p : V(NM227) = 295.288 mV
          n : V(X227.X1.nVCR1) = 295.288 mV
          v = 0 V
          i = -47.0171e-21 A
        pwr = -0 W

Instance: X228.X1.vISample of MTJT
Model: vsource
Primitive: vsource
          p : V(NM228) = 295.288 mV
          n : V(X228.X1.nVCR1) = 295.288 mV
          v = 0 V
          i = -47.0171e-21 A
        pwr = -0 W

Instance: X229.X1.vISample of MTJT
Model: vsource
Primitive: vsource
          p : V(NM229) = 295.288 mV
          n : V(X229.X1.nVCR1) = 295.288 mV
          v = 0 V
          i = -47.0171e-21 A
        pwr = -0 W

Instance: X230.X1.vISample of MTJT
Model: vsource
Primitive: vsource
          p : V(NM230) = 295.288 mV
          n : V(X230.X1.nVCR1) = 295.288 mV
          v = 0 V
          i = -47.0171e-21 A
        pwr = -0 W

Instance: X231.X1.vISample of MTJT
Model: vsource
Primitive: vsource
          p : V(NM231) = 295.288 mV
          n : V(X231.X1.nVCR1) = 295.288 mV
          v = 0 V
          i = -47.0171e-21 A
        pwr = -0 W

Instance: X232.X1.vISample of MTJT
Model: vsource
Primitive: vsource
          p : V(NM232) = 295.288 mV
          n : V(X232.X1.nVCR1) = 295.288 mV
          v = 0 V
          i = -47.0171e-21 A
        pwr = -0 W

Instance: X233.X1.vISample of MTJT
Model: vsource
Primitive: vsource
          p : V(NM233) = 295.288 mV
          n : V(X233.X1.nVCR1) = 295.288 mV
          v = 0 V
          i = -47.0171e-21 A
        pwr = -0 W

Instance: X234.X1.vISample of MTJT
Model: vsource
Primitive: vsource
          p : V(NM234) = 295.288 mV
          n : V(X234.X1.nVCR1) = 295.288 mV
          v = 0 V
          i = -47.0171e-21 A
        pwr = -0 W

Instance: X235.X1.vISample of MTJT
Model: vsource
Primitive: vsource
          p : V(NM235) = 295.288 mV
          n : V(X235.X1.nVCR1) = 295.288 mV
          v = 0 V
          i = -47.0171e-21 A
        pwr = -0 W

Instance: X236.X1.vISample of MTJT
Model: vsource
Primitive: vsource
          p : V(NM236) = 295.288 mV
          n : V(X236.X1.nVCR1) = 295.288 mV
          v = 0 V
          i = -47.0171e-21 A
        pwr = -0 W

Instance: X237.X1.vISample of MTJT
Model: vsource
Primitive: vsource
          p : V(NM237) = 295.288 mV
          n : V(X237.X1.nVCR1) = 295.288 mV
          v = 0 V
          i = -47.0171e-21 A
        pwr = -0 W

Instance: X238.X1.vISample of MTJT
Model: vsource
Primitive: vsource
          p : V(NM238) = 295.288 mV
          n : V(X238.X1.nVCR1) = 295.288 mV
          v = 0 V
          i = -47.0171e-21 A
        pwr = -0 W

Instance: X239.X1.vISample of MTJT
Model: vsource
Primitive: vsource
          p : V(NM239) = 295.288 mV
          n : V(X239.X1.nVCR1) = 295.288 mV
          v = 0 V
          i = -47.0171e-21 A
        pwr = -0 W

Instance: X240.X1.vISample of MTJT
Model: vsource
Primitive: vsource
          p : V(NM240) = 295.288 mV
          n : V(X240.X1.nVCR1) = 295.288 mV
          v = 0 V
          i = -40.3967 fA
        pwr = -0 W

Instance: X241.X1.vISample of MTJT
Model: vsource
Primitive: vsource
          p : V(NM241) = 295.288 mV
          n : V(X241.X1.nVCR1) = 295.288 mV
          v = 0 V
          i = -47.0171e-21 A
        pwr = -0 W

Instance: X242.X1.vISample of MTJT
Model: vsource
Primitive: vsource
          p : V(NM242) = 295.288 mV
          n : V(X242.X1.nVCR1) = 295.288 mV
          v = 0 V
          i = -47.0171e-21 A
        pwr = -0 W

Instance: X243.X1.vISample of MTJT
Model: vsource
Primitive: vsource
          p : V(NM243) = 295.288 mV
          n : V(X243.X1.nVCR1) = 295.288 mV
          v = 0 V
          i = -47.0171e-21 A
        pwr = -0 W

Instance: X244.X1.vISample of MTJT
Model: vsource
Primitive: vsource
          p : V(NM244) = 295.288 mV
          n : V(X244.X1.nVCR1) = 295.288 mV
          v = 0 V
          i = -47.0171e-21 A
        pwr = -0 W

Instance: X245.X1.vISample of MTJT
Model: vsource
Primitive: vsource
          p : V(NM245) = 295.288 mV
          n : V(X245.X1.nVCR1) = 295.288 mV
          v = 0 V
          i = -47.0171e-21 A
        pwr = -0 W

Instance: X246.X1.vISample of MTJT
Model: vsource
Primitive: vsource
          p : V(NM246) = 295.288 mV
          n : V(X246.X1.nVCR1) = 295.288 mV
          v = 0 V
          i = -47.0171e-21 A
        pwr = -0 W

Instance: X247.X1.vISample of MTJT
Model: vsource
Primitive: vsource
          p : V(NM247) = 295.288 mV
          n : V(X247.X1.nVCR1) = 295.288 mV
          v = 0 V
          i = -47.0171e-21 A
        pwr = -0 W

Instance: X248.X1.vISample of MTJT
Model: vsource
Primitive: vsource
          p : V(NM248) = 295.288 mV
          n : V(X248.X1.nVCR1) = 295.288 mV
          v = 0 V
          i = -47.0171e-21 A
        pwr = -0 W

Instance: X249.X1.vISample of MTJT
Model: vsource
Primitive: vsource
          p : V(NM249) = 295.288 mV
          n : V(X249.X1.nVCR1) = 295.288 mV
          v = 0 V
          i = -47.0171e-21 A
        pwr = -0 W

Instance: X250.X1.vISample of MTJT
Model: vsource
Primitive: vsource
          p : V(NM250) = 295.288 mV
          n : V(X250.X1.nVCR1) = 295.288 mV
          v = 0 V
          i = -47.0171e-21 A
        pwr = -0 W

Instance: X251.X1.vISample of MTJT
Model: vsource
Primitive: vsource
          p : V(NM251) = 295.288 mV
          n : V(X251.X1.nVCR1) = 295.288 mV
          v = 0 V
          i = -47.0171e-21 A
        pwr = -0 W

Instance: X252.X1.vISample of MTJT
Model: vsource
Primitive: vsource
          p : V(NM252) = 295.288 mV
          n : V(X252.X1.nVCR1) = 295.288 mV
          v = 0 V
          i = -47.0171e-21 A
        pwr = -0 W

Instance: X253.X1.vISample of MTJT
Model: vsource
Primitive: vsource
          p : V(NM253) = 295.288 mV
          n : V(X253.X1.nVCR1) = 295.288 mV
          v = 0 V
          i = -47.0171e-21 A
        pwr = -0 W

Instance: X254.X1.vISample of MTJT
Model: vsource
Primitive: vsource
          p : V(NM254) = 295.288 mV
          n : V(X254.X1.nVCR1) = 295.288 mV
          v = 0 V
          i = -47.0171e-21 A
        pwr = -0 W

Instance: X255.X1.vISample of MTJT
Model: vsource
Primitive: vsource
          p : V(NM255) = 295.288 mV
          n : V(X255.X1.nVCR1) = 295.288 mV
          v = 0 V
          i = -47.0171e-21 A
        pwr = -0 W

Instance: X256.X1.vISample of MTJT
Model: vsource
Primitive: vsource
          p : V(NM256) = 295.288 mV
          n : V(X256.X1.nVCR1) = 295.288 mV
          v = 0 V
          i = -47.0171e-21 A
        pwr = -0 W

Maximum and minimum parameter values for vsource: 
            max v = 1.6 V on Vbl4en
            min v = 0 V on Vbl1
            max i = 535.001 nA on Vsl8
            min i = -15.9968 uA on Vvdd
          min |i| = -47.017e-21 A on Vtest170
          max pwr = 0 W on Vbl1
          min pwr = -25.5949 uW on Vvdd


Total Power Dissipation = 41.4798 uW.


Convergence achieved in 16 iterations.
DC simulation time: CPU = 1.83587 s, elapsed = 1.86326 s.
Total time required for dc analysis `LeakStat': CPU = 1.83613 s, elapsed = 1.86351 s.
Time accumulated: CPU = 46.4554 s, elapsed = 46.7399 s.
Peak resident memory used = 133 Mbytes.


Warning from spectre.
    WARNING (MDL-1101): "Results.mdl" 850: MDL expression for identifier '__dummy' can not be evaluated due to previous errors.
    WARNING (MDL-1101): "Results.mdl" 851: MDL expression for identifier '__dummy' can not be evaluated due to previous errors.


Aggregate audit (8:41:18 AM, Mon Mar 29, 2021):
Time used: CPU = 46.5 s, elapsed = 46.8 s, util. = 99.3%.
Time spent in licensing: elapsed = 27.5 ms.
Peak memory used = 133 Mbytes.
Simulation started at: 8:40:31 AM, Mon Mar 29, 2021, ended at: 8:41:18 AM, Mon Mar 29, 2021, with elapsed time (wall clock): 46.8 s.
spectre completes with 0 errors, 7 warnings, and 39 notices.
