
Spectre (R) Circuit Simulator
Version 16.1.0.673.isr14 64bit -- 30 Mar 2018
Copyright (C) 1989-2018 Cadence Design Systems, Inc. All rights reserved worldwide. Cadence and Spectre are registered trademarks of Cadence Design Systems, Inc. All others are the property of their respective holders.

Includes RSA BSAFE(R) Cryptographic or Security Protocol Software from RSA Security, Inc.

User: brunozimmer   Host: itacolomi.lapsi   HostID: 7F0100   PID: 6157
Memory  available: 14.0263 GB  physical: 33.7036 GB
Linux   : CentOS Linux release 7.9.2009 (Core)
CPU Type: Intel(R) Xeon(R) CPU E3-1220 V2 @ 3.10GHz
        Socket: Processors [Frequency]
        0:       0 [2741.8],  1 [2743.9],  2 [2791.2],  3 [2802.0]
        
System load averages (1min, 5min, 15min) : 3.2 %, 2.5 %, 3.8 %


Simulating `Cell.scs' on itacolomi.lapsi at 3:25:07 PM, Mon Mar 29, 2021 (process id: 6157).
Current working directory: /home/brunozimmer/Documentos/ComparacaoMemorias/1MTJ_TG/256Bits
Command line:
    /tools/cadence/SPECTRE161/tools.lnx86/bin/spectre -64 =mdl  \
        Results.mdl Cell.scs

Loading /tools/cadence/SPECTRE161/tools.lnx86/cmi/lib/64bit/5.0/libinfineon_sh.so ...
Loading /tools/cadence/SPECTRE161/tools.lnx86/cmi/lib/64bit/5.0/libphilips_o_sh.so ...
Loading /tools/cadence/SPECTRE161/tools.lnx86/cmi/lib/64bit/5.0/libphilips_sh.so ...
Loading /tools/cadence/SPECTRE161/tools.lnx86/cmi/lib/64bit/5.0/libsparam_sh.so ...
Loading /tools/cadence/SPECTRE161/tools.lnx86/cmi/lib/64bit/5.0/libstmodels_sh.so ...
Loading /tools/cadence/SPECTRE161/tools.lnx86/spectre/lib/64bit/mdl/libSpectreEH_sh.so ...

Warning from spectre.
    WARNING (MDL-1452): line 1, column 1: syntax error before or at: *
            unrecognised statement.

Reading file:  /home/brunozimmer/Documentos/ComparacaoMemorias/1MTJ_TG/256Bits/Cell.scs
Reading file:  /tools/cadence/SPECTRE161/tools.lnx86/spectre/etc/configs/mapsubckt.cfg
Reading file:  /tools/cadence/SPECTRE161/tools.lnx86/spectre/etc/configs/spectre.cfg
Reading file:  /home/brunozimmer/Documentos/ComparacaoMemorias/1MTJ_TG/256Bits/45nm_LP.pm
Reading file:  /home/brunozimmer/Documentos/ComparacaoMemorias/1MTJ_TG/256Bits/MTJT.spi
Reading file:  /home/brunozimmer/Documentos/ComparacaoMemorias/1MTJ_TG/256Bits/TRANSGATE.spi
Time for NDB Parsing: CPU = 202.857 ms, elapsed = 228.277 ms.
Time accumulated: CPU = 226.392 ms, elapsed = 228.287 ms.
Peak resident memory used = 66 Mbytes.

Reading link:  /tools/cadence/SPECTRE161/tools.lnx86/spectre/etc/ahdl/discipline.h
Reading file:  /tools/cadence/SPECTRE161/tools.lnx86/spectre/etc/ahdl/disciplines.vams
Reading link:  /tools/cadence/SPECTRE161/tools.lnx86/spectre/etc/ahdl/constants.h
Reading file:  /tools/cadence/SPECTRE161/tools.lnx86/spectre/etc/ahdl/constants.vams
Existing shared object for module bsource_299dda is up to date.
Installed compiled interface for bsource_299dda.
Existing shared object for module bsource_c88c6a is up to date.
Installed compiled interface for bsource_c88c6a.
Existing shared object for module bsource_42ea24 is up to date.
Installed compiled interface for bsource_42ea24.
Existing shared object for module bsource_7b7e87 is up to date.
Installed compiled interface for bsource_7b7e87.
Existing shared object for module bsource_098211 is up to date.
Installed compiled interface for bsource_098211.
Existing shared object for module bsource_ad0f4a is up to date.
Installed compiled interface for bsource_ad0f4a.
Time for Elaboration: CPU = 69.609 ms, elapsed = 69.689 ms.
Time accumulated: CPU = 296.191 ms, elapsed = 298.19 ms.
Peak resident memory used = 79.1 Mbytes.


Time for EDB Visiting: CPU = 82.219 ms, elapsed = 82.231 ms.
Time accumulated: CPU = 378.576 ms, elapsed = 380.605 ms.
Peak resident memory used = 85.9 Mbytes.


Global user options:
             rawfmt = psfbin

Scoped user options:

Circuit inventory:
              nodes 3745
              bsim4 160   
     bsource_7b7e87 256   
     bsource_42ea24 256   
     bsource_299dda 256   
     bsource_098211 256   
     bsource_ad0f4a 256   
     bsource_c88c6a 256   
          capacitor 1568  
           resistor 1792  
               vccs 256   
               vcvs 1024  
            vsource 593   

Analysis and control statement inventory:
               tran 1     

Output statements:
             .probe 0     
           .measure 0     
               save 0     

Time for parsing: CPU = 33.402 ms, elapsed = 63.4949 ms.
Time accumulated: CPU = 412.111 ms, elapsed = 444.25 ms.
Peak resident memory used = 92.1 Mbytes.

~~~~~~~~~~~~~~~~~~~~~~
Pre-Simulation Summary
~~~~~~~~~~~~~~~~~~~~~~
~~~~~~~~~~~~~~~~~~~~~~

+++++++++++++++
TpRead = (0.1n)
+++++++++++++++

Warning from spectre.
    WARNING (MDL-1101): line `824': MDL expression for identifier 'dummyCondVar' can not be evaluated due to previous errors.


++++++++++++++++
TpWrite = (0.7n)
++++++++++++++++

Warning from spectre.
    WARNING (MDL-1560): Error in search, check search condition validity at start value.
    WARNING (MDL-1101): line `838': MDL expression for identifier 'dummyCondVar' can not be evaluated due to previous errors.
    WARNING (MDL-1560): Error in search, check search condition validity at start value.


***************************************************
Transient Analysis `PowerRd': time = (0 s -> 10 ns)
***************************************************
Finding DC approximate solution failed. Try again with try_fast_op set to no.
DC simulation time: CPU = 262.817 ms, elapsed = 262.838 ms.

Notice from spectre during transient analysis `PowerRd', during task `MDLControl'.
    No outputs were found. Loosening output filter criterion to `allpub'.


Opening the PSF file Cell.raw/PowerRd.tran.tran ...
Important parameter values:
    start = 0 s
    outputstart = 0 s
    stop = 10 ns
    step = 10 ps
    maxstep = 200 ps
    ic = all
    useprevic = no
    skipdc = no
    reltol = 1e-03
    abstol(V) = 1 uV
    abstol(I) = 1 pA
    temp = 27 C
    tnom = 27 C
    tempeffects = all
    errpreset = moderate
    method = traponly
    lteratio = 3.5
    relref = sigglobal
    cmin = 0 F
    gmin = 1 pS


Output and IC/nodeset summary:
                 save   593     (current)
                 save   3745    (voltage)

...

Notice from spectre at time = 574.228 ps during transient analysis `PowerRd', during task `MDLControl'.
    Found trapezoidal ringing on node X256.nFeedback.

.....

Notice from spectre at time = 774.228 ps during transient analysis `PowerRd', during task `MDLControl'.
    Found trapezoidal ringing on node X256.nFeedback.

.......

Notice from spectre at time = 899 ps during transient analysis `PowerRd', during task `MDLControl'.
    Found trapezoidal ringing on node X256.nFeedback.

........

Notice from spectre at time = 903.191 ps during transient analysis `PowerRd', during task `MDLControl'.
    Found trapezoidal ringing on node X261.M_i_6:int_b.
Notice from spectre at time = 903.618 ps during transient analysis `PowerRd', during task `MDLControl'.
    Found trapezoidal ringing on node X261.M_i_6:int_b.
        Further occurrences of this notice will be suppressed.

........9........8........7........6........5........4........3........2........1........0
Number of accepted tran steps =             802

Notice from spectre during transient analysis `PowerRd', during task `MDLControl'.
    Trapezoidal ringing is detected during tran analysis.
        Please use method=trap for better results and performance.


Maximum value achieved for any signal of each quantity: 
V: V(X256.nBiStable) = 10 V
I: I(X112.eBiStable:p) = 19.96 A
If your circuit contains signals of the same quantity that are vastly different in size (such as high voltage circuitry combined with low voltage control circuitry), you should consider specifying global option `bin_relref=yes'.

~~~~~~~~~~~~~~~~~~~~~~~~~~~~~~~~~
Post-Transient Simulation Summary
~~~~~~~~~~~~~~~~~~~~~~~~~~~~~~~~~
   -   To further speed up simulation, consider
          add ++aps on command line
~~~~~~~~~~~~~~~~~~~~~~~~~~~~~~~~~


During simulation, the CPU load for active processors is :
        Spectre  0 (4.4 %)       1 (99.2 %)      2 (2.4 %)       3 (3.2 %)
        Other   
Initial condition solution time: CPU = 262.936 ms, elapsed = 262.967 ms.
Intrinsic tran analysis time:    CPU = 6.32014 s, elapsed = 6.3345 s.
Total time required for tran analysis `PowerRd': CPU = 6.60358 s, elapsed = 6.61811 s.
Time accumulated: CPU = 7.13221 s, elapsed = 7.17904 s.
Peak resident memory used = 110 Mbytes.


Notice from spectre during task `MDLControl'.
    269 notices suppressed.


**************************************************
Transient Analysis `LeakRd': time = (0 s -> 10 ns)
**************************************************
Finding DC approximate solution failed. Try again with try_fast_op set to no.
DC simulation time: CPU = 344.994 ms, elapsed = 345.04 ms.

Notice from spectre during transient analysis `LeakRd', during task `MDLControl'.
    No outputs were found. Loosening output filter criterion to `allpub'.


Opening the PSF file Cell.raw/LeakRd.tran.tran ...
Important parameter values:
    start = 0 s
    outputstart = 0 s
    stop = 10 ns
    step = 10 ps
    maxstep = 200 ps
    ic = all
    useprevic = no
    skipdc = no
    reltol = 1e-03
    abstol(V) = 1 uV
    abstol(I) = 1 pA
    temp = 27 C
    tnom = 27 C
    tempeffects = all
    errpreset = moderate
    method = traponly
    lteratio = 3.5
    relref = sigglobal
    cmin = 0 F
    gmin = 1 pS


Output and IC/nodeset summary:
                 save   593     (current)
                 save   3745    (voltage)

...

Notice from spectre at time = 574.228 ps during transient analysis `LeakRd', during task `MDLControl'.
    Found trapezoidal ringing on node X256.nFeedback.

.....

Notice from spectre at time = 774.228 ps during transient analysis `LeakRd', during task `MDLControl'.
    Found trapezoidal ringing on node X256.nFeedback.

.......

Notice from spectre at time = 899 ps during transient analysis `LeakRd', during task `MDLControl'.
    Found trapezoidal ringing on node X256.nFeedback.

........

Notice from spectre at time = 903.191 ps during transient analysis `LeakRd', during task `MDLControl'.
    Found trapezoidal ringing on node X261.M_i_6:int_b.
Notice from spectre at time = 903.618 ps during transient analysis `LeakRd', during task `MDLControl'.
    Found trapezoidal ringing on node X261.M_i_6:int_b.
        Further occurrences of this notice will be suppressed.

........9........8........7........6........5........4........3........2........1........0
Number of accepted tran steps =             802

Notice from spectre during transient analysis `LeakRd', during task `MDLControl'.
    Trapezoidal ringing is detected during tran analysis.
        Please use method=trap for better results and performance.


Maximum value achieved for any signal of each quantity: 
V: V(X256.nBiStable) = 10 V
I: I(X112.eBiStable:p) = 19.96 A
If your circuit contains signals of the same quantity that are vastly different in size (such as high voltage circuitry combined with low voltage control circuitry), you should consider specifying global option `bin_relref=yes'.

~~~~~~~~~~~~~~~~~~~~~~~~~~~~~~~~~
Post-Transient Simulation Summary
~~~~~~~~~~~~~~~~~~~~~~~~~~~~~~~~~
   -   To further speed up simulation, consider
          add ++aps on command line
~~~~~~~~~~~~~~~~~~~~~~~~~~~~~~~~~


During simulation, the CPU load for active processors is :
        Spectre  0 (3.6 %)       1 (99.4 %)      2 (3.5 %)       3 (3.0 %)
        Other   
Initial condition solution time: CPU = 345.1 ms, elapsed = 345.154 ms.
Intrinsic tran analysis time:    CPU = 6.92459 s, elapsed = 6.94161 s.
Total time required for tran analysis `LeakRd': CPU = 7.29044 s, elapsed = 7.30762 s.
Time accumulated: CPU = 14.4342 s, elapsed = 14.5115 s.
Peak resident memory used = 115 Mbytes.


Notice from spectre during task `MDLControl'.
    269 notices suppressed.


****************************************************
Transient Analysis `PowerWrt': time = (0 s -> 10 ns)
****************************************************
Finding DC approximate solution failed. Try again with try_fast_op set to no.
DC simulation time: CPU = 346.19 ms, elapsed = 346.218 ms.

Notice from spectre during transient analysis `PowerWrt', during task `MDLControl'.
    No outputs were found. Loosening output filter criterion to `allpub'.


Opening the PSF file Cell.raw/PowerWrt.tran.tran ...
Important parameter values:
    start = 0 s
    outputstart = 0 s
    stop = 10 ns
    step = 10 ps
    maxstep = 200 ps
    ic = all
    useprevic = no
    skipdc = no
    reltol = 1e-03
    abstol(V) = 1 uV
    abstol(I) = 1 pA
    temp = 27 C
    tnom = 27 C
    tempeffects = all
    errpreset = moderate
    method = traponly
    lteratio = 3.5
    relref = sigglobal
    cmin = 0 F
    gmin = 1 pS


Output and IC/nodeset summary:
                 save   593     (current)
                 save   3745    (voltage)

...

Notice from spectre at time = 574.228 ps during transient analysis `PowerWrt', during task `MDLControl'.
    Found trapezoidal ringing on node X256.nFeedback.

.....

Notice from spectre at time = 774.228 ps during transient analysis `PowerWrt', during task `MDLControl'.
    Found trapezoidal ringing on node X256.nFeedback.

.......

Notice from spectre at time = 899 ps during transient analysis `PowerWrt', during task `MDLControl'.
    Found trapezoidal ringing on node X256.nFeedback.

........

Notice from spectre at time = 903.191 ps during transient analysis `PowerWrt', during task `MDLControl'.
    Found trapezoidal ringing on node X261.M_i_6:int_b.
Notice from spectre at time = 903.618 ps during transient analysis `PowerWrt', during task `MDLControl'.
    Found trapezoidal ringing on node X261.M_i_6:int_b.
        Further occurrences of this notice will be suppressed.

........9........8........7........6........5........4........3........2........1........0
Number of accepted tran steps =             802

Notice from spectre during transient analysis `PowerWrt', during task `MDLControl'.
    Trapezoidal ringing is detected during tran analysis.
        Please use method=trap for better results and performance.


Maximum value achieved for any signal of each quantity: 
V: V(X256.nBiStable) = 10 V
I: I(X112.eBiStable:p) = 19.96 A
If your circuit contains signals of the same quantity that are vastly different in size (such as high voltage circuitry combined with low voltage control circuitry), you should consider specifying global option `bin_relref=yes'.

~~~~~~~~~~~~~~~~~~~~~~~~~~~~~~~~~
Post-Transient Simulation Summary
~~~~~~~~~~~~~~~~~~~~~~~~~~~~~~~~~
   -   To further speed up simulation, consider
          add ++aps on command line
~~~~~~~~~~~~~~~~~~~~~~~~~~~~~~~~~


During simulation, the CPU load for active processors is :
        Spectre  0 (3.3 %)       1 (99.4 %)      2 (3.4 %)       3 (3.3 %)
        Other   
Initial condition solution time: CPU = 346.333 ms, elapsed = 346.371 ms.
Intrinsic tran analysis time:    CPU = 6.68668 s, elapsed = 6.70627 s.
Total time required for tran analysis `PowerWrt': CPU = 7.04393 s, elapsed = 7.06367 s.
Time accumulated: CPU = 21.4927 s, elapsed = 21.6115 s.
Peak resident memory used = 115 Mbytes.


Notice from spectre during task `MDLControl'.
    269 notices suppressed.


***************************************************
Transient Analysis `LeakWrt': time = (0 s -> 10 ns)
***************************************************
Finding DC approximate solution failed. Try again with try_fast_op set to no.
DC simulation time: CPU = 349.844 ms, elapsed = 349.872 ms.

Notice from spectre during transient analysis `LeakWrt', during task `MDLControl'.
    No outputs were found. Loosening output filter criterion to `allpub'.


Opening the PSF file Cell.raw/LeakWrt.tran.tran ...
Important parameter values:
    start = 0 s
    outputstart = 0 s
    stop = 10 ns
    step = 10 ps
    maxstep = 200 ps
    ic = all
    useprevic = no
    skipdc = no
    reltol = 1e-03
    abstol(V) = 1 uV
    abstol(I) = 1 pA
    temp = 27 C
    tnom = 27 C
    tempeffects = all
    errpreset = moderate
    method = traponly
    lteratio = 3.5
    relref = sigglobal
    cmin = 0 F
    gmin = 1 pS


Output and IC/nodeset summary:
                 save   593     (current)
                 save   3745    (voltage)

...

Notice from spectre at time = 574.228 ps during transient analysis `LeakWrt', during task `MDLControl'.
    Found trapezoidal ringing on node X256.nFeedback.

.....

Notice from spectre at time = 774.228 ps during transient analysis `LeakWrt', during task `MDLControl'.
    Found trapezoidal ringing on node X256.nFeedback.

.......

Notice from spectre at time = 899 ps during transient analysis `LeakWrt', during task `MDLControl'.
    Found trapezoidal ringing on node X256.nFeedback.

........

Notice from spectre at time = 903.191 ps during transient analysis `LeakWrt', during task `MDLControl'.
    Found trapezoidal ringing on node X261.M_i_6:int_b.
Notice from spectre at time = 903.618 ps during transient analysis `LeakWrt', during task `MDLControl'.
    Found trapezoidal ringing on node X261.M_i_6:int_b.
        Further occurrences of this notice will be suppressed.

........9........8........7........6........5........4........3........2........1........0
Number of accepted tran steps =             802

Notice from spectre during transient analysis `LeakWrt', during task `MDLControl'.
    Trapezoidal ringing is detected during tran analysis.
        Please use method=trap for better results and performance.


Maximum value achieved for any signal of each quantity: 
V: V(X256.nBiStable) = 10 V
I: I(X112.eBiStable:p) = 19.96 A
If your circuit contains signals of the same quantity that are vastly different in size (such as high voltage circuitry combined with low voltage control circuitry), you should consider specifying global option `bin_relref=yes'.

~~~~~~~~~~~~~~~~~~~~~~~~~~~~~~~~~
Post-Transient Simulation Summary
~~~~~~~~~~~~~~~~~~~~~~~~~~~~~~~~~
   -   To further speed up simulation, consider
          add ++aps on command line
~~~~~~~~~~~~~~~~~~~~~~~~~~~~~~~~~


During simulation, the CPU load for active processors is :
        Spectre  0 (3.4 %)       1 (99.4 %)      2 (3.4 %)       3 (3.2 %)
        Other   
Initial condition solution time: CPU = 349.983 ms, elapsed = 350.018 ms.
Intrinsic tran analysis time:    CPU = 7.02839 s, elapsed = 7.04881 s.
Total time required for tran analysis `LeakWrt': CPU = 7.39935 s, elapsed = 7.41995 s.
Time accumulated: CPU = 28.9035 s, elapsed = 29.0639 s.
Peak resident memory used = 117 Mbytes.


Notice from spectre during task `MDLControl'.
    269 notices suppressed.


**********************
DC Analysis `LeakStat'
**********************

Notice from spectre during DC analysis `LeakStat', during task `MDLControl'.
    No outputs were found. Loosening output filter criterion to `allpub'.

Finding DC approximate solution failed. Try again with try_fast_op set to no.

Opening the PSF file Cell.raw/LeakStat.dc ...
Important parameter values:
    reltol = 1e-03
    abstol(V) = 1 uV
    abstol(I) = 1 pA
    temp = 27 C
    tnom = 27 C
    tempeffects = all
    gmindc = 1 pS

Notice from spectre during DC analysis `LeakStat', during task `MDLControl'.
    Bad pivoting is found during DC analysis. Option dc_pivot_check=yes is recommended for possible improvement of convergence.


Maximum value achieved for any signal of each quantity: 
V: V(X256.nRVFit) = 1.8 V
I: I(Vvdd:p) = 28.75 uA

Notice from spectre during info, during DC analysis `LeakStat', during task `MDLControl'.
    No outputs were found. Loosening output filter criterion to `allpub'.

***************************************
Operating-Point information `LeakStat':
***************************************
Operating point computed in DC analysis `LeakStat' at T = 27 C.

    V(BL1) = 295.275 mV
    V(BL1T) = 0 V
    V(BL2) = 295.275 mV
    V(BL2T) = 0 V
    V(BL3) = 295.275 mV
    V(BL3T) = 0 V
    V(BL4) = 295.275 mV
    V(BL4T) = 0 V
    V(BL5) = 295.275 mV
    V(BL5T) = 0 V
    V(BL6) = 295.275 mV
    V(BL6T) = 0 V
    V(BL7) = 295.275 mV
    V(BL7T) = 0 V
    V(BL8) = 295.275 mV
    V(BL8T) = 0 V
    V(BL9) = 295.275 mV
    V(BL9T) = 0 V
    V(BL10) = 295.275 mV
    V(BL10T) = 0 V
    V(BL11) = 295.275 mV
    V(BL11T) = 0 V
    V(BL12) = 295.275 mV
    V(BL12T) = 0 V
    V(BL13) = 295.275 mV
    V(BL13T) = 0 V
    V(BL14) = 295.275 mV
    V(BL14T) = 0 V
    V(BL15) = 295.275 mV
    V(BL15T) = 0 V
    V(BL16) = 295.275 mV
    V(BL16T) = 0 V
    V(BL17) = 295.275 mV
    V(BL17T) = 0 V
    V(BL18) = 295.275 mV
    V(BL18T) = 0 V
    V(BL19) = 295.275 mV
    V(BL19T) = 0 V
    V(BL20) = 295.275 mV
    V(BL20T) = 0 V
    V(BL21) = 295.275 mV
    V(BL21T) = 0 V
    V(BL22) = 295.275 mV
    V(BL22T) = 0 V
    V(BL23) = 295.275 mV
    V(BL23T) = 0 V
    V(BL24) = 295.275 mV
    V(BL24T) = 0 V
    V(BL25) = 295.275 mV
    V(BL25T) = 0 V
    V(BL26) = 295.275 mV
    V(BL26T) = 0 V
    V(BL27) = 295.275 mV
    V(BL27T) = 0 V
    V(BL28) = 295.275 mV
    V(BL28T) = 0 V
    V(BL29) = 295.275 mV
    V(BL29T) = 0 V
    V(BL30) = 295.275 mV
    V(BL30T) = 0 V
    V(BL31) = 295.275 mV
    V(BL31T) = 0 V
    V(BL32) = 295.275 mV
    V(BL32T) = 0 V
    V(ENBl1) = 0 V
    V(ENBl2) = 0 V
    V(ENBl3) = 0 V
    V(ENBl4) = 0 V
    V(ENBl5) = 0 V
    V(ENBl6) = 0 V
    V(ENBl7) = 0 V
    V(ENBl8) = 0 V
    V(ENBl9) = 0 V
    V(ENBl10) = 0 V
    V(ENBl11) = 0 V
    V(ENBl12) = 0 V
    V(ENBl13) = 0 V
    V(ENBl14) = 0 V
    V(ENBl15) = 0 V
    V(ENBl16) = 0 V
    V(ENBl17) = 0 V
    V(ENBl18) = 0 V
    V(ENBl19) = 0 V
    V(ENBl20) = 0 V
    V(ENBl21) = 0 V
    V(ENBl22) = 0 V
    V(ENBl23) = 0 V
    V(ENBl24) = 0 V
    V(ENBl25) = 0 V
    V(ENBl26) = 0 V
    V(ENBl27) = 0 V
    V(ENBl28) = 0 V
    V(ENBl29) = 0 V
    V(ENBl30) = 0 V
    V(ENBl31) = 0 V
    V(ENBl32) = 0 V
    V(ENWl1) = 0 V
    V(ENWl2) = 0 V
    V(ENWl3) = 0 V
    V(ENWl4) = 0 V
    V(ENWl5) = 0 V
    V(ENWl6) = 0 V
    V(ENWl7) = 0 V
    V(ENWl8) = 0 V
    V(NM1) = 295.275 mV
    V(NM2) = 295.275 mV
    V(NM3) = 295.275 mV
    V(NM4) = 295.275 mV
    V(NM5) = 295.275 mV
    V(NM6) = 295.275 mV
    V(NM7) = 295.275 mV
    V(NM8) = 295.275 mV
    V(NM9) = 295.275 mV
    V(NM10) = 295.275 mV
    V(NM11) = 295.275 mV
    V(NM12) = 295.275 mV
    V(NM13) = 295.275 mV
    V(NM14) = 295.275 mV
    V(NM15) = 295.275 mV
    V(NM16) = 295.275 mV
    V(NM17) = 295.275 mV
    V(NM18) = 295.275 mV
    V(NM19) = 295.275 mV
    V(NM20) = 295.275 mV
    V(NM21) = 295.275 mV
    V(NM22) = 295.275 mV
    V(NM23) = 295.275 mV
    V(NM24) = 295.275 mV
    V(NM25) = 295.275 mV
    V(NM26) = 295.275 mV
    V(NM27) = 295.275 mV
    V(NM28) = 295.275 mV
    V(NM29) = 295.275 mV
    V(NM30) = 295.275 mV
    V(NM31) = 295.275 mV
    V(NM32) = 295.275 mV
    V(NM33) = 295.275 mV
    V(NM34) = 295.275 mV
    V(NM35) = 295.275 mV
    V(NM36) = 295.275 mV
    V(NM37) = 295.275 mV
    V(NM38) = 295.275 mV
    V(NM39) = 295.275 mV
    V(NM40) = 295.275 mV
    V(NM41) = 295.275 mV
    V(NM42) = 295.275 mV
    V(NM43) = 295.275 mV
    V(NM44) = 295.275 mV
    V(NM45) = 295.275 mV
    V(NM46) = 295.275 mV
    V(NM47) = 295.275 mV
    V(NM48) = 295.275 mV
    V(NM49) = 295.275 mV
    V(NM50) = 295.275 mV
    V(NM51) = 295.275 mV
    V(NM52) = 295.275 mV
    V(NM53) = 295.275 mV
    V(NM54) = 295.275 mV
    V(NM55) = 295.275 mV
    V(NM56) = 295.275 mV
    V(NM57) = 295.275 mV
    V(NM58) = 295.275 mV
    V(NM59) = 295.275 mV
    V(NM60) = 295.275 mV
    V(NM61) = 295.275 mV
    V(NM62) = 295.275 mV
    V(NM63) = 295.275 mV
    V(NM64) = 295.275 mV
    V(NM65) = 295.275 mV
    V(NM66) = 295.275 mV
    V(NM67) = 295.275 mV
    V(NM68) = 295.275 mV
    V(NM69) = 295.275 mV
    V(NM70) = 295.275 mV
    V(NM71) = 295.275 mV
    V(NM72) = 295.275 mV
    V(NM73) = 295.275 mV
    V(NM74) = 295.275 mV
    V(NM75) = 295.275 mV
    V(NM76) = 295.275 mV
    V(NM77) = 295.275 mV
    V(NM78) = 295.275 mV
    V(NM79) = 295.275 mV
    V(NM80) = 295.275 mV
    V(NM81) = 295.275 mV
    V(NM82) = 295.275 mV
    V(NM83) = 295.275 mV
    V(NM84) = 295.275 mV
    V(NM85) = 295.275 mV
    V(NM86) = 295.275 mV
    V(NM87) = 295.275 mV
    V(NM88) = 295.275 mV
    V(NM89) = 295.275 mV
    V(NM90) = 295.275 mV
    V(NM91) = 295.275 mV
    V(NM92) = 295.275 mV
    V(NM93) = 295.275 mV
    V(NM94) = 295.275 mV
    V(NM95) = 295.275 mV
    V(NM96) = 295.275 mV
    V(NM97) = 295.275 mV
    V(NM98) = 295.275 mV
    V(NM99) = 295.275 mV
    V(NM100) = 295.275 mV
    V(NM101) = 295.275 mV
    V(NM102) = 295.275 mV
    V(NM103) = 295.275 mV
    V(NM104) = 295.275 mV
    V(NM105) = 295.275 mV
    V(NM106) = 295.275 mV
    V(NM107) = 295.275 mV
    V(NM108) = 295.275 mV
    V(NM109) = 295.275 mV
    V(NM110) = 295.275 mV
    V(NM111) = 295.275 mV
    V(NM112) = 295.275 mV
    V(NM113) = 295.275 mV
    V(NM114) = 295.275 mV
    V(NM115) = 295.275 mV
    V(NM116) = 295.275 mV
    V(NM117) = 295.275 mV
    V(NM118) = 295.275 mV
    V(NM119) = 295.275 mV
    V(NM120) = 295.275 mV
    V(NM121) = 295.275 mV
    V(NM122) = 295.275 mV
    V(NM123) = 295.275 mV
    V(NM124) = 295.275 mV
    V(NM125) = 295.275 mV
    V(NM126) = 295.275 mV
    V(NM127) = 295.275 mV
    V(NM128) = 295.275 mV
    V(NM129) = 295.275 mV
    V(NM130) = 295.275 mV
    V(NM131) = 295.275 mV
    V(NM132) = 295.275 mV
    V(NM133) = 295.275 mV
    V(NM134) = 295.275 mV
    V(NM135) = 295.275 mV
    V(NM136) = 295.275 mV
    V(NM137) = 295.275 mV
    V(NM138) = 295.275 mV
    V(NM139) = 295.275 mV
    V(NM140) = 295.275 mV
    V(NM141) = 295.275 mV
    V(NM142) = 295.275 mV
    V(NM143) = 295.275 mV
    V(NM144) = 295.275 mV
    V(NM145) = 295.275 mV
    V(NM146) = 295.275 mV
    V(NM147) = 295.275 mV
    V(NM148) = 295.275 mV
    V(NM149) = 295.275 mV
    V(NM150) = 295.275 mV
    V(NM151) = 295.275 mV
    V(NM152) = 295.275 mV
    V(NM153) = 295.275 mV
    V(NM154) = 295.275 mV
    V(NM155) = 295.275 mV
    V(NM156) = 295.275 mV
    V(NM157) = 295.275 mV
    V(NM158) = 295.275 mV
    V(NM159) = 295.275 mV
    V(NM160) = 295.275 mV
    V(NM161) = 295.275 mV
    V(NM162) = 295.275 mV
    V(NM163) = 295.275 mV
    V(NM164) = 295.275 mV
    V(NM165) = 295.275 mV
    V(NM166) = 295.275 mV
    V(NM167) = 295.275 mV
    V(NM168) = 295.275 mV
    V(NM169) = 295.275 mV
    V(NM170) = 295.275 mV
    V(NM171) = 295.275 mV
    V(NM172) = 295.275 mV
    V(NM173) = 295.275 mV
    V(NM174) = 295.275 mV
    V(NM175) = 295.275 mV
    V(NM176) = 295.275 mV
    V(NM177) = 295.275 mV
    V(NM178) = 295.275 mV
    V(NM179) = 295.275 mV
    V(NM180) = 295.275 mV
    V(NM181) = 295.275 mV
    V(NM182) = 295.275 mV
    V(NM183) = 295.275 mV
    V(NM184) = 295.275 mV
    V(NM185) = 295.275 mV
    V(NM186) = 295.275 mV
    V(NM187) = 295.275 mV
    V(NM188) = 295.275 mV
    V(NM189) = 295.275 mV
    V(NM190) = 295.275 mV
    V(NM191) = 295.275 mV
    V(NM192) = 295.275 mV
    V(NM193) = 295.275 mV
    V(NM194) = 295.275 mV
    V(NM195) = 295.275 mV
    V(NM196) = 295.275 mV
    V(NM197) = 295.275 mV
    V(NM198) = 295.275 mV
    V(NM199) = 295.275 mV
    V(NM200) = 295.275 mV
    V(NM201) = 295.275 mV
    V(NM202) = 295.275 mV
    V(NM203) = 295.275 mV
    V(NM204) = 295.275 mV
    V(NM205) = 295.275 mV
    V(NM206) = 295.275 mV
    V(NM207) = 295.275 mV
    V(NM208) = 295.275 mV
    V(NM209) = 295.275 mV
    V(NM210) = 295.275 mV
    V(NM211) = 295.275 mV
    V(NM212) = 295.275 mV
    V(NM213) = 295.275 mV
    V(NM214) = 295.275 mV
    V(NM215) = 295.275 mV
    V(NM216) = 295.275 mV
    V(NM217) = 295.275 mV
    V(NM218) = 295.275 mV
    V(NM219) = 295.275 mV
    V(NM220) = 295.275 mV
    V(NM221) = 295.275 mV
    V(NM222) = 295.275 mV
    V(NM223) = 295.275 mV
    V(NM224) = 295.275 mV
    V(NM225) = 295.275 mV
    V(NM226) = 295.275 mV
    V(NM227) = 295.275 mV
    V(NM228) = 295.275 mV
    V(NM229) = 295.275 mV
    V(NM230) = 295.275 mV
    V(NM231) = 295.275 mV
    V(NM232) = 295.275 mV
    V(NM233) = 295.275 mV
    V(NM234) = 295.275 mV
    V(NM235) = 295.275 mV
    V(NM236) = 295.275 mV
    V(NM237) = 295.275 mV
    V(NM238) = 295.275 mV
    V(NM239) = 295.275 mV
    V(NM240) = 295.275 mV
    V(NM241) = 295.275 mV
    V(NM242) = 295.275 mV
    V(NM243) = 295.275 mV
    V(NM244) = 295.275 mV
    V(NM245) = 295.275 mV
    V(NM246) = 295.275 mV
    V(NM247) = 295.275 mV
    V(NM248) = 295.275 mV
    V(NM249) = 295.275 mV
    V(NM250) = 295.275 mV
    V(NM251) = 295.275 mV
    V(NM252) = 295.275 mV
    V(NM253) = 295.275 mV
    V(NM254) = 295.275 mV
    V(NM255) = 295.275 mV
    V(NM256) = 295.275 mV
    I(Vbl1:p) = 535.001 nA
    I(Vbl1en:p) = 4.9379 nA
    I(Vbl2:p) = 535.001 nA
    I(Vbl2en:p) = 4.9379 nA
    I(Vbl3:p) = 535.001 nA
    I(Vbl3en:p) = 4.9379 nA
    I(Vbl4:p) = 535.001 nA
    I(Vbl4en:p) = 4.9379 nA
    I(Vbl5:p) = 535.001 nA
    I(Vbl5en:p) = 4.9379 nA
    I(Vbl6:p) = 535.001 nA
    I(Vbl6en:p) = 4.9379 nA
    I(Vbl7:p) = 535.001 nA
    I(Vbl7en:p) = 4.9379 nA
    I(Vbl8:p) = 535.001 nA
    I(Vbl8en:p) = 4.9379 nA
    I(Vbl9:p) = 535.001 nA
    I(Vbl9en:p) = 4.9379 nA
    I(Vbl10:p) = 535.001 nA
    I(Vbl10en:p) = 4.9379 nA
    I(Vbl11:p) = 535.001 nA
    I(Vbl11en:p) = 4.9379 nA
    I(Vbl12:p) = 535.001 nA
    I(Vbl12en:p) = 4.9379 nA
    I(Vbl13:p) = 535.001 nA
    I(Vbl13en:p) = 4.9379 nA
    I(Vbl14:p) = 535.001 nA
    I(Vbl14en:p) = 4.9379 nA
    I(Vbl15:p) = 535.001 nA
    I(Vbl15en:p) = 4.9379 nA
    I(Vbl16:p) = 535.001 nA
    I(Vbl16en:p) = 4.9379 nA
    I(Vbl17:p) = 535.001 nA
    I(Vbl17en:p) = 4.9379 nA
    I(Vbl18:p) = 535.001 nA
    I(Vbl18en:p) = 4.9379 nA
    I(Vbl19:p) = 535.001 nA
    I(Vbl19en:p) = 4.9379 nA
    I(Vbl20:p) = 535.001 nA
    I(Vbl20en:p) = 4.9379 nA
    I(Vbl21:p) = 535.001 nA
    I(Vbl21en:p) = 4.9379 nA
    I(Vbl22:p) = 535.001 nA
    I(Vbl22en:p) = 4.9379 nA
    I(Vbl23:p) = 535.001 nA
    I(Vbl23en:p) = 4.9379 nA
    I(Vbl24:p) = 535.001 nA
    I(Vbl24en:p) = 4.9379 nA
    I(Vbl25:p) = 535.001 nA
    I(Vbl25en:p) = 4.9379 nA
    I(Vbl26:p) = 535.001 nA
    I(Vbl26en:p) = 4.9379 nA
    I(Vbl27:p) = 535.001 nA
    I(Vbl27en:p) = 4.9379 nA
    I(Vbl28:p) = 535.001 nA
    I(Vbl28en:p) = 4.9379 nA
    I(Vbl29:p) = 535.001 nA
    I(Vbl29en:p) = 4.9379 nA
    I(Vbl30:p) = 535.001 nA
    I(Vbl30en:p) = 4.9379 nA
    I(Vbl31:p) = 535.001 nA
    I(Vbl31en:p) = 4.9379 nA
    I(Vbl32:p) = 535.001 nA
    I(Vbl32en:p) = 4.9379 nA
    V(Vdd) = 1.6 V
    I(Vtest1:p) = 92.7349e-24 A
    I(Vtest2:p) = 92.1369e-24 A
    I(Vtest3:p) = 283.903e-24 A
    I(Vtest4:p) = 93.0722e-24 A
    I(Vtest5:p) = 126.786e-24 A
    I(Vtest6:p) = -29.4917e-24 A
    I(Vtest7:p) = -12.401e-24 A
    I(Vtest8:p) = 41.1477e-24 A
    I(Vtest9:p) = 92.4359e-24 A
    I(Vtest10:p) = -40.9705e-24 A
    I(Vtest11:p) = 40.1687e-24 A
    I(Vtest12:p) = -339.064e-24 A
    I(Vtest13:p) = 38.3155e-24 A
    I(Vtest14:p) = 81.7671e-24 A
    I(Vtest15:p) = 59.2808e-24 A
    I(Vtest16:p) = 125.591e-24 A
    I(Vtest17:p) = 126.188e-24 A
    I(Vtest18:p) = 124.994e-24 A
    I(Vtest19:p) = 92.4363e-24 A
    I(Vtest20:p) = 90.2639e-24 A
    I(Vtest21:p) = 126.188e-24 A
    I(Vtest22:p) = 126.786e-24 A
    I(Vtest23:p) = 126.786e-24 A
    I(Vtest24:p) = 126.786e-24 A
    I(Vtest25:p) = 126.487e-24 A
    I(Vtest26:p) = -2.36096e-21 A
    I(Vtest27:p) = 124.994e-24 A
    I(Vtest28:p) = 90.6437e-24 A
    I(Vtest29:p) = 89.4491e-24 A
    I(Vtest30:p) = 60.4753e-24 A
    I(Vtest31:p) = 90.3448e-24 A
    I(Vtest32:p) = 92.7345e-24 A
    I(Vtest33:p) = 106.713e-24 A
    I(Vtest34:p) = 90.8234e-24 A
    I(Vtest35:p) = 54.3498e-24 A
    I(Vtest36:p) = 93.1556e-24 A
    I(Vtest37:p) = 97.023e-24 A
    I(Vtest38:p) = 96.3776e-24 A
    I(Vtest39:p) = 79.8609e-24 A
    I(Vtest40:p) = 94.5399e-24 A
    I(Vtest41:p) = 16.4305e-24 A
    I(Vtest42:p) = 95.8907e-24 A
    I(Vtest43:p) = 95.9584e-24 A
    I(Vtest44:p) = 169.418e-24 A
    I(Vtest45:p) = 90.0286e-24 A
    I(Vtest46:p) = 90.2756e-24 A
    I(Vtest47:p) = 90.6879e-24 A
    I(Vtest48:p) = 95.0257e-24 A
    I(Vtest49:p) = 97.8209e-24 A
    I(Vtest50:p) = 82.2923e-24 A
    I(Vtest51:p) = -561.506e-24 A
    I(Vtest52:p) = 680.563e-24 A
    I(Vtest53:p) = 94.2492e-24 A
    I(Vtest54:p) = 93.0626e-24 A
    I(Vtest55:p) = 77.9877e-24 A
    I(Vtest56:p) = 98.7861e-24 A
    I(Vtest57:p) = 88.2079e-24 A
    I(Vtest58:p) = -2.60359e-21 A
    I(Vtest59:p) = 40.9012e-24 A
    I(Vtest60:p) = 63.7244e-24 A
    I(Vtest61:p) = 63.9481e-24 A
    I(Vtest62:p) = 103.585e-24 A
    I(Vtest63:p) = 36.8572e-24 A
    I(Vtest64:p) = 86.5574e-24 A
    I(Vtest65:p) = -53.686e-24 A
    I(Vtest66:p) = -41.8991e-24 A
    I(Vtest67:p) = -87.2988e-24 A
    I(Vtest68:p) = -41.4879e-24 A
    I(Vtest69:p) = -42.2655e-24 A
    I(Vtest70:p) = -26.4956e-24 A
    I(Vtest71:p) = -34.0457e-24 A
    I(Vtest72:p) = -45.7061e-24 A
    I(Vtest73:p) = -26.3532e-24 A
    I(Vtest74:p) = -22.1468e-24 A
    I(Vtest75:p) = -40.7118e-24 A
    I(Vtest76:p) = 54.6207e-24 A
    I(Vtest77:p) = -39.4846e-24 A
    I(Vtest78:p) = -36.7119e-24 A
    I(Vtest79:p) = -40.5733e-24 A
    I(Vtest80:p) = -53.5386e-24 A
    I(Vtest81:p) = -40.3608e-24 A
    I(Vtest82:p) = -43.1661e-24 A
    I(Vtest83:p) = 121.822e-24 A
    I(Vtest84:p) = -228.493e-24 A
    I(Vtest85:p) = -38.5232e-24 A
    I(Vtest86:p) = -51.6888e-24 A
    I(Vtest87:p) = -39.0316e-24 A
    I(Vtest88:p) = -66.3612e-24 A
    I(Vtest89:p) = -51.714e-24 A
    I(Vtest90:p) = 1.25944e-21 A
    I(Vtest91:p) = -44.5874e-24 A
    I(Vtest92:p) = -46.676e-24 A
    I(Vtest93:p) = -33.2792e-24 A
    I(Vtest94:p) = -38.376e-24 A
    I(Vtest95:p) = -36.8437e-24 A
    I(Vtest96:p) = -44.3686e-24 A
    I(Vtest97:p) = 79.4022e-24 A
    I(Vtest98:p) = 78.8048e-24 A
    I(Vtest99:p) = 88.9605e-24 A
    I(Vtest100:p) = 72.8308e-24 A
    I(Vtest101:p) = 70.4414e-24 A
    I(Vtest102:p) = 84.1814e-24 A
    I(Vtest103:p) = 89.2591e-24 A
    I(Vtest104:p) = 84.7788e-24 A
    I(Vtest105:p) = 69.5454e-24 A
    I(Vtest106:p) = 98.5187e-24 A
    I(Vtest107:p) = 81.1943e-24 A
    I(Vtest108:p) = 77.0125e-24 A
    I(Vtest109:p) = 77.61e-24 A
    I(Vtest110:p) = 75.2206e-24 A
    I(Vtest111:p) = 74.6232e-24 A
    I(Vtest112:p) = 74.0256e-24 A
    I(Vtest113:p) = 74.6231e-24 A
    I(Vtest114:p) = 78.2074e-24 A
    I(Vtest115:p) = 69.545e-24 A
    I(Vtest116:p) = 38.629e-24 A
    I(Vtest117:p) = 74.623e-24 A
    I(Vtest118:p) = 70.4414e-24 A
    I(Vtest119:p) = 70.4414e-24 A
    I(Vtest120:p) = 70.4412e-24 A
    I(Vtest121:p) = 70.1427e-24 A
    I(Vtest122:p) = -2.39321e-21 A
    I(Vtest123:p) = 78.2075e-24 A
    I(Vtest124:p) = 84.4799e-24 A
    I(Vtest125:p) = 85.6748e-24 A
    I(Vtest126:p) = 85.3761e-24 A
    I(Vtest127:p) = 86.5709e-24 A
    I(Vtest128:p) = 79.4023e-24 A
    I(Vtest129:p) = -159.674e-24 A
    I(Vtest130:p) = -154.032e-24 A
    I(Vtest131:p) = -195.117e-24 A
    I(Vtest132:p) = -149.849e-24 A
    I(Vtest133:p) = -150.195e-24 A
    I(Vtest134:p) = -118.828e-24 A
    I(Vtest135:p) = -121.987e-24 A
    I(Vtest136:p) = -134.323e-24 A
    I(Vtest137:p) = -133.718e-24 A
    I(Vtest138:p) = -125.231e-24 A
    I(Vtest139:p) = -144.541e-24 A
    I(Vtest140:p) = -56.921e-24 A
    I(Vtest141:p) = -129.965e-24 A
    I(Vtest142:p) = -148.584e-24 A
    I(Vtest143:p) = -144.573e-24 A
    I(Vtest144:p) = -155.243e-24 A
    I(Vtest145:p) = -161.554e-24 A
    I(Vtest146:p) = -163.464e-24 A
    I(Vtest147:p) = 10.0412e-24 A
    I(Vtest148:p) = -328.292e-24 A
    I(Vtest149:p) = -154.119e-24 A
    I(Vtest150:p) = -153.757e-24 A
    I(Vtest151:p) = -147.396e-24 A
    I(Vtest152:p) = -147.779e-24 A
    I(Vtest153:p) = -153.934e-24 A
    I(Vtest154:p) = 4.50537e-21 A
    I(Vtest155:p) = -150.862e-24 A
    I(Vtest156:p) = -130.515e-24 A
    I(Vtest157:p) = -171.013e-24 A
    I(Vtest158:p) = -149.551e-24 A
    I(Vtest159:p) = -132.194e-24 A
    I(Vtest160:p) = -148.181e-24 A
    I(Vtest161:p) = -200.683e-24 A
    I(Vtest162:p) = -201.419e-24 A
    I(Vtest163:p) = -256.139e-24 A
    I(Vtest164:p) = -207.566e-24 A
    I(Vtest165:p) = -220.996e-24 A
    I(Vtest166:p) = -187.997e-24 A
    I(Vtest167:p) = -163.193e-24 A
    I(Vtest168:p) = -189.045e-24 A
    I(Vtest169:p) = -184.107e-24 A
    I(Vtest170:p) = -183.879e-24 A
    I(Vtest171:p) = -186.9e-24 A
    I(Vtest172:p) = -119.605e-24 A
    I(Vtest173:p) = -198.933e-24 A
    I(Vtest174:p) = -198.239e-24 A
    I(Vtest175:p) = -194.418e-24 A
    I(Vtest176:p) = -207.315e-24 A
    I(Vtest177:p) = -220.191e-24 A
    I(Vtest178:p) = -208.404e-24 A
    I(Vtest179:p) = -39.566e-24 A
    I(Vtest180:p) = -216.995e-24 A
    I(Vtest181:p) = -219.732e-24 A
    I(Vtest182:p) = -206.106e-24 A
    I(Vtest183:p) = -206.251e-24 A
    I(Vtest184:p) = -206.466e-24 A
    I(Vtest185:p) = -206.299e-24 A
    I(Vtest186:p) = 5.98933e-21 A
    I(Vtest187:p) = -195.525e-24 A
    I(Vtest188:p) = -203.546e-24 A
    I(Vtest189:p) = -173.881e-24 A
    I(Vtest190:p) = -193.122e-24 A
    I(Vtest191:p) = -191.349e-24 A
    I(Vtest192:p) = -201.663e-24 A
    I(Vtest193:p) = 97.473e-24 A
    I(Vtest194:p) = 101.655e-24 A
    I(Vtest195:p) = 107.031e-24 A
    I(Vtest196:p) = 90.9015e-24 A
    I(Vtest197:p) = 93.2913e-24 A
    I(Vtest198:p) = 111.81e-24 A
    I(Vtest199:p) = 104.94e-24 A
    I(Vtest200:p) = 107.629e-24 A
    I(Vtest201:p) = 109.122e-24 A
    I(Vtest202:p) = 126.148e-24 A
    I(Vtest203:p) = 104.044e-24 A
    I(Vtest204:p) = 104.641e-24 A
    I(Vtest205:p) = 100.46e-24 A
    I(Vtest206:p) = 102.849e-24 A
    I(Vtest207:p) = 111.81e-24 A
    I(Vtest208:p) = 96.8756e-24 A
    I(Vtest209:p) = 92.6939e-24 A
    I(Vtest210:p) = 96.2782e-24 A
    I(Vtest211:p) = 109.122e-24 A
    I(Vtest212:p) = 94.9331e-24 A
    I(Vtest213:p) = 92.6939e-24 A
    I(Vtest214:p) = 93.2912e-24 A
    I(Vtest215:p) = 93.2914e-24 A
    I(Vtest216:p) = 93.2913e-24 A
    I(Vtest217:p) = 95.382e-24 A
    I(Vtest218:p) = -3.13979e-21 A
    I(Vtest219:p) = 96.2782e-24 A
    I(Vtest220:p) = 104.94e-24 A
    I(Vtest221:p) = 110.914e-24 A
    I(Vtest222:p) = 93.8888e-24 A
    I(Vtest223:p) = 104.642e-24 A
    I(Vtest224:p) = 97.473e-24 A
    I(Vtest225:p) = 37.708e-24 A
    I(Vtest226:p) = 33.9174e-24 A
    I(Vtest227:p) = 4.2983e-24 A
    I(Vtest228:p) = 48.9303e-24 A
    I(Vtest229:p) = 25.9019e-24 A
    I(Vtest230:p) = 70.431e-24 A
    I(Vtest231:p) = 57.5534e-24 A
    I(Vtest232:p) = 40.966e-24 A
    I(Vtest233:p) = 56.6313e-24 A
    I(Vtest234:p) = 51.6569e-24 A
    I(Vtest235:p) = 50.7744e-24 A
    I(Vtest236:p) = 109.885e-24 A
    I(Vtest237:p) = 61.9553e-24 A
    I(Vtest238:p) = 33.4093e-24 A
    I(Vtest239:p) = 43.1494e-24 A
    I(Vtest240:p) = 24.5665e-24 A
    I(Vtest241:p) = 30.7673e-24 A
    I(Vtest242:p) = 33.2509e-24 A
    I(Vtest243:p) = 198.092e-24 A
    I(Vtest244:p) = -130.621e-24 A
    I(Vtest245:p) = 24.607e-24 A
    I(Vtest246:p) = 27.9583e-24 A
    I(Vtest247:p) = 24.1603e-24 A
    I(Vtest248:p) = 31.289e-24 A
    I(Vtest249:p) = 31.7152e-24 A
    I(Vtest250:p) = -1.2564e-21 A
    I(Vtest251:p) = 50.5811e-24 A
    I(Vtest252:p) = 36.9365e-24 A
    I(Vtest253:p) = 28.1739e-24 A
    I(Vtest254:p) = 37.7105e-24 A
    I(Vtest255:p) = 41.9598e-24 A
    I(Vtest256:p) = 38.0334e-24 A
    I(Vvdd:p) = -28.7454 uA
    I(Vwl1:p) = 535.001 nA
    I(Vwl1en:p) = 4.9379 nA
    I(Vwl2:p) = 535.001 nA
    I(Vwl2en:p) = 4.9379 nA
    I(Vwl3:p) = 535.001 nA
    I(Vwl3en:p) = 4.9379 nA
    I(Vwl4:p) = 535.001 nA
    I(Vwl4en:p) = 4.9379 nA
    I(Vwl5:p) = 535.001 nA
    I(Vwl5en:p) = 4.9379 nA
    I(Vwl6:p) = 535.001 nA
    I(Vwl6en:p) = 4.9379 nA
    I(Vwl7:p) = 535.001 nA
    I(Vwl7en:p) = 4.9379 nA
    I(Vwl8:p) = 535.001 nA
    I(Vwl8en:p) = 4.9379 nA
    V(WL1) = 295.275 mV
    V(WL1T) = 0 V
    V(WL2) = 295.275 mV
    V(WL2T) = 0 V
    V(WL3) = 295.275 mV
    V(WL3T) = 0 V
    V(WL4) = 295.275 mV
    V(WL4T) = 0 V
    V(WL5) = 295.275 mV
    V(WL5T) = 0 V
    V(WL6) = 295.275 mV
    V(WL6T) = 0 V
    V(WL7) = 295.275 mV
    V(WL7T) = 0 V
    V(WL8) = 295.275 mV
    V(WL8T) = 0 V
    V(X1.n50) = 0 V
    V(X1.n51) = 0 V
    V(X1.n60) = 0 V
    V(X1.n61) = 0 V
    V(X1.nBiStable) = 0 V
    V(X1.nFeedback) = 0 V
    V(X1.nINeg) = 13.2251 aV
    V(X1.nIPos) = -13.2251 aV
    V(X1.nRVFit) = 1.8 V
    V(X1.nVCR1) = 295.275 mV
    V(X1.nVCtrl) = 1.8 V
    V(X1.nVDec) = 0 V
    V(X1.nVTMR) = 1.8 V
    I(X1.vISample:p) = 92.7349e-24 A
    V(X2.n50) = 0 V
    V(X2.n51) = 0 V
    V(X2.n60) = 0 V
    V(X2.n61) = 0 V
    V(X2.nBiStable) = 0 V
    V(X2.nFeedback) = 0 V
    V(X2.nINeg) = 12.6168 aV
    V(X2.nIPos) = -12.6168 aV
    V(X2.nRVFit) = 1.8 V
    V(X2.nVCR1) = 295.275 mV
    V(X2.nVCtrl) = 1.8 V
    V(X2.nVDec) = 0 V
    V(X2.nVTMR) = 1.8 V
    I(X2.vISample:p) = 92.1369e-24 A
    V(X3.n50) = 0 V
    V(X3.n51) = 0 V
    V(X3.n60) = 0 V
    V(X3.n61) = 0 V
    V(X3.nBiStable) = -11.8818e-213 V
    V(X3.nFeedback) = -1.45042e-216 V
    V(X3.nINeg) = -18.2542 aV
    V(X3.nIPos) = 18.2542 aV
    V(X3.nRVFit) = 1.8 V
    V(X3.nVCR1) = 295.275 mV
    V(X3.nVCtrl) = 1.8 V
    V(X3.nVDec) = 0 V
    V(X3.nVTMR) = 1.8 V
    I(X3.vISample:p) = 283.903e-24 A
    V(X4.n50) = 0 V
    V(X4.n51) = 0 V
    V(X4.n60) = 0 V
    V(X4.n61) = 0 V
    V(X4.nBiStable) = 0 V
    V(X4.nFeedback) = 0 V
    V(X4.nINeg) = 1.12609 aV
    V(X4.nIPos) = -1.12609 aV
    V(X4.nRVFit) = 1.8 V
    V(X4.nVCR1) = 295.275 mV
    V(X4.nVCtrl) = 1.8 V
    V(X4.nVDec) = 0 V
    V(X4.nVTMR) = 1.8 V
    I(X4.vISample:p) = 93.0722e-24 A
    V(X5.n50) = 0 V
    V(X5.n51) = 0 V
    V(X5.n60) = 0 V
    V(X5.n61) = 0 V
    V(X5.nBiStable) = 0 V
    V(X5.nFeedback) = 0 V
    V(X5.nINeg) = 12.9987 aV
    V(X5.nIPos) = -12.9987 aV
    V(X5.nRVFit) = 1.8 V
    V(X5.nVCR1) = 295.275 mV
    V(X5.nVCtrl) = 1.8 V
    V(X5.nVDec) = 0 V
    V(X5.nVTMR) = 1.8 V
    I(X5.vISample:p) = 126.786e-24 A
    V(X6.n50) = 0 V
    V(X6.n51) = 0 V
    V(X6.n60) = 0 V
    V(X6.n61) = 0 V
    V(X6.nBiStable) = -11.8818e-213 V
    V(X6.nFeedback) = -1.45042e-216 V
    V(X6.nINeg) = -1.18984 aV
    V(X6.nIPos) = 1.18984 aV
    V(X6.nRVFit) = 1.8 V
    V(X6.nVCR1) = 295.275 mV
    V(X6.nVCtrl) = 1.8 V
    V(X6.nVDec) = 0 V
    V(X6.nVTMR) = 1.8 V
    I(X6.vISample:p) = -29.4917e-24 A
    V(X7.n50) = 0 V
    V(X7.n51) = 0 V
    V(X7.n60) = 0 V
    V(X7.n61) = 0 V
    V(X7.nBiStable) = 0 V
    V(X7.nFeedback) = 0 V
    V(X7.nINeg) = 2.2714 aV
    V(X7.nIPos) = -2.2714 aV
    V(X7.nRVFit) = 1.8 V
    V(X7.nVCR1) = 295.275 mV
    V(X7.nVCtrl) = 1.8 V
    V(X7.nVDec) = 0 V
    V(X7.nVTMR) = 1.8 V
    I(X7.vISample:p) = -12.401e-24 A
    V(X8.n50) = 0 V
    V(X8.n51) = 0 V
    V(X8.n60) = 0 V
    V(X8.n61) = 0 V
    V(X8.nBiStable) = 5.94091e-213 V
    V(X8.nFeedback) = 725.209e-219 V
    V(X8.nINeg) = 3.43635 aV
    V(X8.nIPos) = -3.43635 aV
    V(X8.nRVFit) = 1.8 V
    V(X8.nVCR1) = 295.275 mV
    V(X8.nVCtrl) = 1.8 V
    V(X8.nVDec) = 0 V
    V(X8.nVTMR) = 1.8 V
    I(X8.vISample:p) = 41.1477e-24 A
    V(X9.n50) = 0 V
    V(X9.n51) = 0 V
    V(X9.n60) = 0 V
    V(X9.n61) = 0 V
    V(X9.nBiStable) = 0 V
    V(X9.nFeedback) = 0 V
    V(X9.nINeg) = 9.53678 aV
    V(X9.nIPos) = -9.53678 aV
    V(X9.nRVFit) = 1.8 V
    V(X9.nVCR1) = 295.275 mV
    V(X9.nVCtrl) = 1.8 V
    V(X9.nVDec) = 0 V
    V(X9.nVTMR) = 1.8 V
    I(X9.vISample:p) = 92.4359e-24 A
    V(X10.n50) = 0 V
    V(X10.n51) = 0 V
    V(X10.n60) = 0 V
    V(X10.n61) = 0 V
    V(X10.nBiStable) = 23.7636e-213 V
    V(X10.nFeedback) = 2.90084e-216 V
    V(X10.nINeg) = -178.223e-21 V
    V(X10.nIPos) = 178.223e-21 V
    V(X10.nRVFit) = 1.8 V
    V(X10.nVCR1) = 295.275 mV
    V(X10.nVCtrl) = 1.8 V
    V(X10.nVDec) = 0 V
    V(X10.nVTMR) = 1.8 V
    I(X10.vISample:p) = -40.9705e-24 A
    V(X11.n50) = 0 V
    V(X11.n51) = 0 V
    V(X11.n60) = 0 V
    V(X11.n61) = 0 V
    V(X11.nBiStable) = 0 V
    V(X11.nFeedback) = 0 V
    V(X11.nINeg) = 520.165e-21 V
    V(X11.nIPos) = -520.165e-21 V
    V(X11.nRVFit) = 1.8 V
    V(X11.nVCR1) = 295.275 mV
    V(X11.nVCtrl) = 1.8 V
    V(X11.nVDec) = 0 V
    V(X11.nVTMR) = 1.8 V
    I(X11.vISample:p) = 40.1687e-24 A
    V(X12.n50) = 0 V
    V(X12.n51) = 0 V
    V(X12.n60) = 0 V
    V(X12.n61) = 0 V
    V(X12.nBiStable) = 0 V
    V(X12.nFeedback) = 0 V
    V(X12.nINeg) = 35.837 aV
    V(X12.nIPos) = -35.837 aV
    V(X12.nRVFit) = 1.8 V
    V(X12.nVCR1) = 295.275 mV
    V(X12.nVCtrl) = 1.8 V
    V(X12.nVDec) = 0 V
    V(X12.nVTMR) = 1.8 V
    I(X12.vISample:p) = -339.064e-24 A
    V(X13.n50) = 0 V
    V(X13.n51) = 0 V
    V(X13.n60) = 0 V
    V(X13.n61) = 0 V
    V(X13.nBiStable) = 11.8818e-213 V
    V(X13.nFeedback) = 1.45042e-216 V
    V(X13.nINeg) = 5.18481 aV
    V(X13.nIPos) = -5.18481 aV
    V(X13.nRVFit) = 1.8 V
    V(X13.nVCR1) = 295.275 mV
    V(X13.nVCtrl) = 1.8 V
    V(X13.nVDec) = 0 V
    V(X13.nVTMR) = 1.8 V
    I(X13.vISample:p) = 38.3155e-24 A
    V(X14.n50) = 0 V
    V(X14.n51) = 0 V
    V(X14.n60) = 0 V
    V(X14.n61) = 0 V
    V(X14.nBiStable) = 0 V
    V(X14.nFeedback) = 0 V
    V(X14.nINeg) = 2.24953 aV
    V(X14.nIPos) = -2.24953 aV
    V(X14.nRVFit) = 1.8 V
    V(X14.nVCR1) = 295.275 mV
    V(X14.nVCtrl) = 1.8 V
    V(X14.nVDec) = 0 V
    V(X14.nVTMR) = 1.8 V
    I(X14.vISample:p) = 81.7671e-24 A
    V(X15.n50) = 0 V
    V(X15.n51) = 0 V
    V(X15.n60) = 0 V
    V(X15.n61) = 0 V
    V(X15.nBiStable) = 0 V
    V(X15.nFeedback) = 0 V
    V(X15.nINeg) = 13.0324 aV
    V(X15.nIPos) = -13.0324 aV
    V(X15.nRVFit) = 1.8 V
    V(X15.nVCR1) = 295.275 mV
    V(X15.nVCtrl) = 1.8 V
    V(X15.nVDec) = 0 V
    V(X15.nVTMR) = 1.8 V
    I(X15.vISample:p) = 59.2808e-24 A
    V(X16.n50) = 0 V
    V(X16.n51) = 0 V
    V(X16.n60) = 0 V
    V(X16.n61) = 0 V
    V(X16.nBiStable) = 2.97046e-213 V
    V(X16.nFeedback) = 362.604e-219 V
    V(X16.nINeg) = 13.2348 aV
    V(X16.nIPos) = -13.2348 aV
    V(X16.nRVFit) = 1.8 V
    V(X16.nVCR1) = 295.275 mV
    V(X16.nVCtrl) = 1.8 V
    V(X16.nVDec) = 0 V
    V(X16.nVTMR) = 1.8 V
    I(X16.vISample:p) = 125.591e-24 A
    V(X17.n50) = 0 V
    V(X17.n51) = 0 V
    V(X17.n60) = 0 V
    V(X17.n61) = 0 V
    V(X17.nBiStable) = 11.8818e-213 V
    V(X17.nFeedback) = 1.45042e-216 V
    V(X17.nINeg) = 12.8156 aV
    V(X17.nIPos) = -12.8156 aV
    V(X17.nRVFit) = 1.8 V
    V(X17.nVCR1) = 295.275 mV
    V(X17.nVCtrl) = 1.8 V
    V(X17.nVDec) = 0 V
    V(X17.nVTMR) = 1.8 V
    I(X17.vISample:p) = 126.188e-24 A
    V(X18.n50) = 0 V
    V(X18.n51) = 0 V
    V(X18.n60) = 0 V
    V(X18.n61) = 0 V
    V(X18.nBiStable) = -1.48523e-213 V
    V(X18.nFeedback) = -181.302e-219 V
    V(X18.nINeg) = 12.9453 aV
    V(X18.nIPos) = -12.9453 aV
    V(X18.nRVFit) = 1.8 V
    V(X18.nVCR1) = 295.275 mV
    V(X18.nVCtrl) = 1.8 V
    V(X18.nVDec) = 0 V
    V(X18.nVTMR) = 1.8 V
    I(X18.vISample:p) = 124.994e-24 A
    V(X19.n50) = 0 V
    V(X19.n51) = 0 V
    V(X19.n60) = 0 V
    V(X19.n61) = 0 V
    V(X19.nBiStable) = -11.8818e-213 V
    V(X19.nFeedback) = -1.45042e-216 V
    V(X19.nINeg) = 5.28448 aV
    V(X19.nIPos) = -5.28448 aV
    V(X19.nRVFit) = 1.8 V
    V(X19.nVCR1) = 295.275 mV
    V(X19.nVCtrl) = 1.8 V
    V(X19.nVDec) = 0 V
    V(X19.nVTMR) = 1.8 V
    I(X19.vISample:p) = 92.4363e-24 A
    V(X20.n50) = 0 V
    V(X20.n51) = 0 V
    V(X20.n60) = 0 V
    V(X20.n61) = 0 V
    V(X20.nBiStable) = 0 V
    V(X20.nFeedback) = 0 V
    V(X20.nINeg) = 10.0465 aV
    V(X20.nIPos) = -10.0465 aV
    V(X20.nRVFit) = 1.8 V
    V(X20.nVCR1) = 295.275 mV
    V(X20.nVCtrl) = 1.8 V
    V(X20.nVDec) = 0 V
    V(X20.nVTMR) = 1.8 V
    I(X20.vISample:p) = 90.2639e-24 A
    V(X21.n50) = 0 V
    V(X21.n51) = 0 V
    V(X21.n60) = 0 V
    V(X21.n61) = 0 V
    V(X21.nBiStable) = -2.97046e-213 V
    V(X21.nFeedback) = -362.604e-219 V
    V(X21.nINeg) = 13.099 aV
    V(X21.nIPos) = -13.099 aV
    V(X21.nRVFit) = 1.8 V
    V(X21.nVCR1) = 295.275 mV
    V(X21.nVCtrl) = 1.8 V
    V(X21.nVDec) = 0 V
    V(X21.nVTMR) = 1.8 V
    I(X21.vISample:p) = 126.188e-24 A
    V(X22.n50) = 0 V
    V(X22.n51) = 0 V
    V(X22.n60) = 0 V
    V(X22.n61) = 0 V
    V(X22.nBiStable) = 2.97046e-213 V
    V(X22.nFeedback) = 362.604e-219 V
    V(X22.nINeg) = 13.0695 aV
    V(X22.nIPos) = -13.0695 aV
    V(X22.nRVFit) = 1.8 V
    V(X22.nVCR1) = 295.275 mV
    V(X22.nVCtrl) = 1.8 V
    V(X22.nVDec) = 0 V
    V(X22.nVTMR) = 1.8 V
    I(X22.vISample:p) = 126.786e-24 A
    V(X23.n50) = 0 V
    V(X23.n51) = 0 V
    V(X23.n60) = 0 V
    V(X23.n61) = 0 V
    V(X23.nBiStable) = 0 V
    V(X23.nFeedback) = 0 V
    V(X23.nINeg) = 13.1759 aV
    V(X23.nIPos) = -13.1759 aV
    V(X23.nRVFit) = 1.8 V
    V(X23.nVCR1) = 295.275 mV
    V(X23.nVCtrl) = 1.8 V
    V(X23.nVDec) = 0 V
    V(X23.nVTMR) = 1.8 V
    I(X23.vISample:p) = 126.786e-24 A
    V(X24.n50) = 0 V
    V(X24.n51) = 0 V
    V(X24.n60) = 0 V
    V(X24.n61) = 0 V
    V(X24.nBiStable) = 0 V
    V(X24.nFeedback) = 0 V
    V(X24.nINeg) = 13.1759 aV
    V(X24.nIPos) = -13.1759 aV
    V(X24.nRVFit) = 1.8 V
    V(X24.nVCR1) = 295.275 mV
    V(X24.nVCtrl) = 1.8 V
    V(X24.nVDec) = 0 V
    V(X24.nVTMR) = 1.8 V
    I(X24.vISample:p) = 126.786e-24 A
    V(X25.n50) = 0 V
    V(X25.n51) = 0 V
    V(X25.n60) = 0 V
    V(X25.n61) = 0 V
    V(X25.nBiStable) = 0 V
    V(X25.nFeedback) = 0 V
    V(X25.nINeg) = 13.1728 aV
    V(X25.nIPos) = -13.1728 aV
    V(X25.nRVFit) = 1.8 V
    V(X25.nVCR1) = 295.275 mV
    V(X25.nVCtrl) = 1.8 V
    V(X25.nVDec) = 0 V
    V(X25.nVTMR) = 1.8 V
    I(X25.vISample:p) = 126.487e-24 A
    V(X26.n50) = 0 V
    V(X26.n51) = 0 V
    V(X26.n60) = 0 V
    V(X26.n61) = 0 V
    V(X26.nBiStable) = -47.5273e-213 V
    V(X26.nFeedback) = -5.80167e-216 V
    V(X26.nINeg) = -68.1373 aV
    V(X26.nIPos) = 0 V
    V(X26.nRVFit) = 1.8 V
    V(X26.nVCR1) = 295.275 mV
    V(X26.nVCtrl) = 1.8 V
    V(X26.nVDec) = 0 V
    V(X26.nVTMR) = 1.8 V
    I(X26.vISample:p) = -2.36096e-21 A
    V(X27.n50) = 0 V
    V(X27.n51) = 0 V
    V(X27.n60) = 0 V
    V(X27.n61) = 0 V
    V(X27.nBiStable) = 0 V
    V(X27.nFeedback) = 0 V
    V(X27.nINeg) = 13.1225 aV
    V(X27.nIPos) = -13.1225 aV
    V(X27.nRVFit) = 1.8 V
    V(X27.nVCR1) = 295.275 mV
    V(X27.nVCtrl) = 1.8 V
    V(X27.nVDec) = 0 V
    V(X27.nVTMR) = 1.8 V
    I(X27.vISample:p) = 124.994e-24 A
    V(X28.n50) = 0 V
    V(X28.n51) = 0 V
    V(X28.n60) = 0 V
    V(X28.n61) = 0 V
    V(X28.nBiStable) = -371.307e-216 V
    V(X28.nFeedback) = -45.3256e-219 V
    V(X28.nINeg) = 12.6019 aV
    V(X28.nIPos) = -12.6019 aV
    V(X28.nRVFit) = 1.8 V
    V(X28.nVCR1) = 295.275 mV
    V(X28.nVCtrl) = 1.8 V
    V(X28.nVDec) = 0 V
    V(X28.nVTMR) = 1.8 V
    I(X28.vISample:p) = 90.6437e-24 A
    V(X29.n50) = 0 V
    V(X29.n51) = 0 V
    V(X29.n60) = 0 V
    V(X29.n61) = 0 V
    V(X29.nBiStable) = -23.2067e-216 V
    V(X29.nFeedback) = -2.83285e-219 V
    V(X29.nINeg) = 12.8026 aV
    V(X29.nIPos) = -12.8026 aV
    V(X29.nRVFit) = 1.8 V
    V(X29.nVCR1) = 295.275 mV
    V(X29.nVCtrl) = 1.8 V
    V(X29.nVDec) = 0 V
    V(X29.nVTMR) = 1.8 V
    I(X29.vISample:p) = 89.4491e-24 A
    V(X30.n50) = 0 V
    V(X30.n51) = 0 V
    V(X30.n60) = 0 V
    V(X30.n61) = 0 V
    V(X30.nBiStable) = 0 V
    V(X30.nFeedback) = 0 V
    V(X30.nINeg) = 13.0443 aV
    V(X30.nIPos) = -13.0443 aV
    V(X30.nRVFit) = 1.8 V
    V(X30.nVCR1) = 295.275 mV
    V(X30.nVCtrl) = 1.8 V
    V(X30.nVDec) = 0 V
    V(X30.nVTMR) = 1.8 V
    I(X30.vISample:p) = 60.4753e-24 A
    V(X31.n50) = 0 V
    V(X31.n51) = 0 V
    V(X31.n60) = 0 V
    V(X31.n61) = 0 V
    V(X31.nBiStable) = -11.8818e-213 V
    V(X31.nFeedback) = -1.45042e-216 V
    V(X31.nINeg) = 13.2368 aV
    V(X31.nIPos) = -13.2368 aV
    V(X31.nRVFit) = 1.8 V
    V(X31.nVCR1) = 295.275 mV
    V(X31.nVCtrl) = 1.8 V
    V(X31.nVDec) = 0 V
    V(X31.nVTMR) = 1.8 V
    I(X31.vISample:p) = 90.3448e-24 A
    V(X32.n50) = 0 V
    V(X32.n51) = 0 V
    V(X32.n60) = 0 V
    V(X32.n61) = 0 V
    V(X32.nBiStable) = -11.8818e-213 V
    V(X32.nFeedback) = -1.45042e-216 V
    V(X32.nINeg) = 12.9417 aV
    V(X32.nIPos) = -12.9417 aV
    V(X32.nRVFit) = 1.8 V
    V(X32.nVCR1) = 295.275 mV
    V(X32.nVCtrl) = 1.8 V
    V(X32.nVDec) = 0 V
    V(X32.nVTMR) = 1.8 V
    I(X32.vISample:p) = 92.7345e-24 A
    V(X33.n50) = 0 V
    V(X33.n51) = 0 V
    V(X33.n60) = 0 V
    V(X33.n61) = 0 V
    V(X33.nBiStable) = 0 V
    V(X33.nFeedback) = 0 V
    V(X33.nINeg) = 8.10959 aV
    V(X33.nIPos) = -8.10959 aV
    V(X33.nRVFit) = 1.8 V
    V(X33.nVCR1) = 295.275 mV
    V(X33.nVCtrl) = 1.8 V
    V(X33.nVDec) = 0 V
    V(X33.nVTMR) = 1.8 V
    I(X33.vISample:p) = 106.713e-24 A
    V(X34.n50) = 0 V
    V(X34.n51) = 0 V
    V(X34.n60) = 0 V
    V(X34.n61) = 0 V
    V(X34.nBiStable) = -46.4134e-216 V
    V(X34.nFeedback) = -5.66569e-219 V
    V(X34.nINeg) = 4.84401 aV
    V(X34.nIPos) = -4.84401 aV
    V(X34.nRVFit) = 1.8 V
    V(X34.nVCR1) = 295.275 mV
    V(X34.nVCtrl) = 1.8 V
    V(X34.nVDec) = 0 V
    V(X34.nVTMR) = 1.8 V
    I(X34.vISample:p) = 90.8234e-24 A
    V(X35.n50) = 0 V
    V(X35.n51) = 0 V
    V(X35.n60) = 0 V
    V(X35.n61) = 0 V
    V(X35.nBiStable) = 0 V
    V(X35.nFeedback) = 0 V
    V(X35.nINeg) = 11.0382 aV
    V(X35.nIPos) = -11.0382 aV
    V(X35.nRVFit) = 1.8 V
    V(X35.nVCR1) = 295.275 mV
    V(X35.nVCtrl) = 1.8 V
    V(X35.nVDec) = 0 V
    V(X35.nVTMR) = 1.8 V
    I(X35.vISample:p) = 54.3498e-24 A
    V(X36.n50) = 0 V
    V(X36.n51) = 0 V
    V(X36.n60) = 0 V
    V(X36.n61) = 0 V
    V(X36.nBiStable) = -11.8818e-213 V
    V(X36.nFeedback) = -1.45042e-216 V
    V(X36.nINeg) = 7.27927 aV
    V(X36.nIPos) = -7.27927 aV
    V(X36.nRVFit) = 1.8 V
    V(X36.nVCR1) = 295.275 mV
    V(X36.nVCtrl) = 1.8 V
    V(X36.nVDec) = 0 V
    V(X36.nVTMR) = 1.8 V
    I(X36.vISample:p) = 93.1556e-24 A
    V(X37.n50) = 0 V
    V(X37.n51) = 0 V
    V(X37.n60) = 0 V
    V(X37.n61) = 0 V
    V(X37.nBiStable) = 0 V
    V(X37.nFeedback) = 0 V
    V(X37.nINeg) = 3.99935 aV
    V(X37.nIPos) = -3.99935 aV
    V(X37.nRVFit) = 1.8 V
    V(X37.nVCR1) = 295.275 mV
    V(X37.nVCtrl) = 1.8 V
    V(X37.nVDec) = 0 V
    V(X37.nVTMR) = 1.8 V
    I(X37.vISample:p) = 97.023e-24 A
    V(X38.n50) = 0 V
    V(X38.n51) = 0 V
    V(X38.n60) = 0 V
    V(X38.n61) = 0 V
    V(X38.nBiStable) = 0 V
    V(X38.nFeedback) = 0 V
    V(X38.nINeg) = 9.30799 aV
    V(X38.nIPos) = -9.30799 aV
    V(X38.nRVFit) = 1.8 V
    V(X38.nVCR1) = 295.275 mV
    V(X38.nVCtrl) = 1.8 V
    V(X38.nVDec) = 0 V
    V(X38.nVTMR) = 1.8 V
    I(X38.vISample:p) = 96.3776e-24 A
    V(X39.n50) = 0 V
    V(X39.n51) = 0 V
    V(X39.n60) = 0 V
    V(X39.n61) = 0 V
    V(X39.nBiStable) = 0 V
    V(X39.nFeedback) = 0 V
    V(X39.nINeg) = 10.299 aV
    V(X39.nIPos) = -10.299 aV
    V(X39.nRVFit) = 1.8 V
    V(X39.nVCR1) = 295.275 mV
    V(X39.nVCtrl) = 1.8 V
    V(X39.nVDec) = 0 V
    V(X39.nVTMR) = 1.8 V
    I(X39.vISample:p) = 79.8609e-24 A
    V(X40.n50) = 0 V
    V(X40.n51) = 0 V
    V(X40.n60) = 0 V
    V(X40.n61) = 0 V
    V(X40.nBiStable) = -92.8267e-216 V
    V(X40.nFeedback) = -11.3314e-219 V
    V(X40.nINeg) = 6.01349 aV
    V(X40.nIPos) = -6.01349 aV
    V(X40.nRVFit) = 1.8 V
    V(X40.nVCR1) = 295.275 mV
    V(X40.nVCtrl) = 1.8 V
    V(X40.nVDec) = 0 V
    V(X40.nVTMR) = 1.8 V
    I(X40.vISample:p) = 94.5399e-24 A
    V(X41.n50) = 0 V
    V(X41.n51) = 0 V
    V(X41.n60) = 0 V
    V(X41.n61) = 0 V
    V(X41.nBiStable) = -47.5273e-213 V
    V(X41.nFeedback) = -5.80167e-216 V
    V(X41.nINeg) = 7.06373 aV
    V(X41.nIPos) = -7.06373 aV
    V(X41.nRVFit) = 1.8 V
    V(X41.nVCR1) = 295.275 mV
    V(X41.nVCtrl) = 1.8 V
    V(X41.nVDec) = 0 V
    V(X41.nVTMR) = 1.8 V
    I(X41.vISample:p) = 16.4305e-24 A
    V(X42.n50) = 0 V
    V(X42.n51) = 0 V
    V(X42.n60) = 0 V
    V(X42.n61) = 0 V
    V(X42.nBiStable) = 5.94091e-213 V
    V(X42.nFeedback) = 725.209e-219 V
    V(X42.nINeg) = 7.31544 aV
    V(X42.nIPos) = -7.31544 aV
    V(X42.nRVFit) = 1.8 V
    V(X42.nVCR1) = 295.275 mV
    V(X42.nVCtrl) = 1.8 V
    V(X42.nVDec) = 0 V
    V(X42.nVTMR) = 1.8 V
    I(X42.vISample:p) = 95.8907e-24 A
    V(X43.n50) = 0 V
    V(X43.n51) = 0 V
    V(X43.n60) = 0 V
    V(X43.n61) = 0 V
    V(X43.nBiStable) = 0 V
    V(X43.nFeedback) = 0 V
    V(X43.nINeg) = 5.97422 aV
    V(X43.nIPos) = -5.97422 aV
    V(X43.nRVFit) = 1.8 V
    V(X43.nVCR1) = 295.275 mV
    V(X43.nVCtrl) = 1.8 V
    V(X43.nVDec) = 0 V
    V(X43.nVTMR) = 1.8 V
    I(X43.vISample:p) = 95.9584e-24 A
    V(X44.n50) = 0 V
    V(X44.n51) = 0 V
    V(X44.n60) = 0 V
    V(X44.n61) = 0 V
    V(X44.nBiStable) = 5.94091e-213 V
    V(X44.nFeedback) = 725.209e-219 V
    V(X44.nINeg) = -2.53357 aV
    V(X44.nIPos) = 2.53357 aV
    V(X44.nRVFit) = 1.8 V
    V(X44.nVCR1) = 295.275 mV
    V(X44.nVCtrl) = 1.8 V
    V(X44.nVDec) = 0 V
    V(X44.nVTMR) = 1.8 V
    I(X44.vISample:p) = 169.418e-24 A
    V(X45.n50) = 0 V
    V(X45.n51) = 0 V
    V(X45.n60) = 0 V
    V(X45.n61) = 0 V
    V(X45.nBiStable) = 11.8818e-213 V
    V(X45.nFeedback) = 1.45042e-216 V
    V(X45.nINeg) = 7.31261 aV
    V(X45.nIPos) = -7.31261 aV
    V(X45.nRVFit) = 1.8 V
    V(X45.nVCR1) = 295.275 mV
    V(X45.nVCtrl) = 1.8 V
    V(X45.nVDec) = 0 V
    V(X45.nVTMR) = 1.8 V
    I(X45.vISample:p) = 90.0286e-24 A
    V(X46.n50) = 0 V
    V(X46.n51) = 0 V
    V(X46.n60) = 0 V
    V(X46.n61) = 0 V
    V(X46.nBiStable) = -185.653e-216 V
    V(X46.nFeedback) = -22.6628e-219 V
    V(X46.nINeg) = 8.50611 aV
    V(X46.nIPos) = -8.50611 aV
    V(X46.nRVFit) = 1.8 V
    V(X46.nVCR1) = 295.275 mV
    V(X46.nVCtrl) = 1.8 V
    V(X46.nVDec) = 0 V
    V(X46.nVTMR) = 1.8 V
    I(X46.vISample:p) = 90.2756e-24 A
    V(X47.n50) = 0 V
    V(X47.n51) = 0 V
    V(X47.n60) = 0 V
    V(X47.n61) = 0 V
    V(X47.nBiStable) = -23.7636e-213 V
    V(X47.nFeedback) = -2.90084e-216 V
    V(X47.nINeg) = 20.2653 aV
    V(X47.nIPos) = -20.2653 aV
    V(X47.nRVFit) = 1.8 V
    V(X47.nVCR1) = 295.275 mV
    V(X47.nVCtrl) = 1.8 V
    V(X47.nVDec) = 0 V
    V(X47.nVTMR) = 1.8 V
    I(X47.vISample:p) = 90.6879e-24 A
    V(X48.n50) = 0 V
    V(X48.n51) = 0 V
    V(X48.n60) = 0 V
    V(X48.n61) = 0 V
    V(X48.nBiStable) = 0 V
    V(X48.nFeedback) = 0 V
    V(X48.nINeg) = 10.6008 aV
    V(X48.nIPos) = -10.6008 aV
    V(X48.nRVFit) = 1.8 V
    V(X48.nVCR1) = 295.275 mV
    V(X48.nVCtrl) = 1.8 V
    V(X48.nVDec) = 0 V
    V(X48.nVTMR) = 1.8 V
    I(X48.vISample:p) = 95.0257e-24 A
    V(X49.n50) = 0 V
    V(X49.n51) = 0 V
    V(X49.n60) = 0 V
    V(X49.n61) = 0 V
    V(X49.nBiStable) = -23.7636e-213 V
    V(X49.nFeedback) = -2.90084e-216 V
    V(X49.nINeg) = 3.98202 aV
    V(X49.nIPos) = -3.98202 aV
    V(X49.nRVFit) = 1.8 V
    V(X49.nVCR1) = 295.275 mV
    V(X49.nVCtrl) = 1.8 V
    V(X49.nVDec) = 0 V
    V(X49.nVTMR) = 1.8 V
    I(X49.vISample:p) = 97.8209e-24 A
    V(X50.n50) = 0 V
    V(X50.n51) = 0 V
    V(X50.n60) = 0 V
    V(X50.n61) = 0 V
    V(X50.nBiStable) = 11.8818e-213 V
    V(X50.nFeedback) = 1.45042e-216 V
    V(X50.nINeg) = 7.07983 aV
    V(X50.nIPos) = -7.07983 aV
    V(X50.nRVFit) = 1.8 V
    V(X50.nVCR1) = 295.275 mV
    V(X50.nVCtrl) = 1.8 V
    V(X50.nVDec) = 0 V
    V(X50.nVTMR) = 1.8 V
    I(X50.vISample:p) = 82.2923e-24 A
    V(X51.n50) = 0 V
    V(X51.n51) = 0 V
    V(X51.n60) = 0 V
    V(X51.n61) = 0 V
    V(X51.nBiStable) = 47.5273e-213 V
    V(X51.nFeedback) = 5.80167e-216 V
    V(X51.nINeg) = 27.63 aV
    V(X51.nIPos) = -27.63 aV
    V(X51.nRVFit) = 1.8 V
    V(X51.nVCR1) = 295.275 mV
    V(X51.nVCtrl) = 1.8 V
    V(X51.nVDec) = 0 V
    V(X51.nVTMR) = 1.8 V
    I(X51.vISample:p) = -561.506e-24 A
    V(X52.n50) = 0 V
    V(X52.n51) = 0 V
    V(X52.n60) = 0 V
    V(X52.n61) = 0 V
    V(X52.nBiStable) = -11.8818e-213 V
    V(X52.nFeedback) = -1.45042e-216 V
    V(X52.nINeg) = 9.7174 aV
    V(X52.nIPos) = -9.7174 aV
    V(X52.nRVFit) = 1.8 V
    V(X52.nVCR1) = 295.275 mV
    V(X52.nVCtrl) = 1.8 V
    V(X52.nVDec) = 0 V
    V(X52.nVTMR) = 1.8 V
    I(X52.vISample:p) = 680.563e-24 A
    V(X53.n50) = 0 V
    V(X53.n51) = 0 V
    V(X53.n60) = 0 V
    V(X53.n61) = 0 V
    V(X53.nBiStable) = 0 V
    V(X53.nFeedback) = 0 V
    V(X53.nINeg) = 9.33689 aV
    V(X53.nIPos) = -9.33689 aV
    V(X53.nRVFit) = 1.8 V
    V(X53.nVCR1) = 295.275 mV
    V(X53.nVCtrl) = 1.8 V
    V(X53.nVDec) = 0 V
    V(X53.nVTMR) = 1.8 V
    I(X53.vISample:p) = 94.2492e-24 A
    V(X54.n50) = 0 V
    V(X54.n51) = 0 V
    V(X54.n60) = 0 V
    V(X54.n61) = 0 V
    V(X54.nBiStable) = 11.8818e-213 V
    V(X54.nFeedback) = 1.45042e-216 V
    V(X54.nINeg) = 8.1622 aV
    V(X54.nIPos) = -8.1622 aV
    V(X54.nRVFit) = 1.8 V
    V(X54.nVCR1) = 295.275 mV
    V(X54.nVCtrl) = 1.8 V
    V(X54.nVDec) = 0 V
    V(X54.nVTMR) = 1.8 V
    I(X54.vISample:p) = 93.0626e-24 A
    V(X55.n50) = 0 V
    V(X55.n51) = 0 V
    V(X55.n60) = 0 V
    V(X55.n61) = 0 V
    V(X55.nBiStable) = -5.94091e-213 V
    V(X55.nFeedback) = -725.209e-219 V
    V(X55.nINeg) = 8.03618 aV
    V(X55.nIPos) = -8.03618 aV
    V(X55.nRVFit) = 1.8 V
    V(X55.nVCR1) = 295.275 mV
    V(X55.nVCtrl) = 1.8 V
    V(X55.nVDec) = 0 V
    V(X55.nVTMR) = 1.8 V
    I(X55.vISample:p) = 77.9877e-24 A
    V(X56.n50) = 0 V
    V(X56.n51) = 0 V
    V(X56.n60) = 0 V
    V(X56.n61) = 0 V
    V(X56.nBiStable) = 0 V
    V(X56.nFeedback) = 0 V
    V(X56.nINeg) = 10.2469 aV
    V(X56.nIPos) = -10.2469 aV
    V(X56.nRVFit) = 1.8 V
    V(X56.nVCR1) = 295.275 mV
    V(X56.nVCtrl) = 1.8 V
    V(X56.nVDec) = 0 V
    V(X56.nVTMR) = 1.8 V
    I(X56.vISample:p) = 98.7861e-24 A
    V(X57.n50) = 0 V
    V(X57.n51) = 0 V
    V(X57.n60) = 0 V
    V(X57.n61) = 0 V
    V(X57.nBiStable) = 0 V
    V(X57.nFeedback) = 0 V
    V(X57.nINeg) = 8.12222 aV
    V(X57.nIPos) = -8.12222 aV
    V(X57.nRVFit) = 1.8 V
    V(X57.nVCR1) = 295.275 mV
    V(X57.nVCtrl) = 1.8 V
    V(X57.nVDec) = 0 V
    V(X57.nVTMR) = 1.8 V
    I(X57.vISample:p) = 88.2079e-24 A
    V(X58.n50) = 0 V
    V(X58.n51) = 0 V
    V(X58.n60) = 0 V
    V(X58.n61) = 0 V
    V(X58.nBiStable) = 0 V
    V(X58.nFeedback) = 0 V
    V(X58.nINeg) = -56.2174 aV
    V(X58.nIPos) = 0 V
    V(X58.nRVFit) = 1.8 V
    V(X58.nVCR1) = 295.275 mV
    V(X58.nVCtrl) = 1.8 V
    V(X58.nVDec) = 0 V
    V(X58.nVTMR) = 1.8 V
    I(X58.vISample:p) = -2.60359e-21 A
    V(X59.n50) = 0 V
    V(X59.n51) = 0 V
    V(X59.n60) = 0 V
    V(X59.n61) = 0 V
    V(X59.nBiStable) = -11.8818e-213 V
    V(X59.nFeedback) = -1.45042e-216 V
    V(X59.nINeg) = 9.51279 aV
    V(X59.nIPos) = -9.51279 aV
    V(X59.nRVFit) = 1.8 V
    V(X59.nVCR1) = 295.275 mV
    V(X59.nVCtrl) = 1.8 V
    V(X59.nVDec) = 0 V
    V(X59.nVTMR) = 1.8 V
    I(X59.vISample:p) = 40.9012e-24 A
    V(X60.n50) = 0 V
    V(X60.n51) = 0 V
    V(X60.n60) = 0 V
    V(X60.n61) = 0 V
    V(X60.nBiStable) = 0 V
    V(X60.nFeedback) = 0 V
    V(X60.nINeg) = 5.60889 aV
    V(X60.nIPos) = -5.60889 aV
    V(X60.nRVFit) = 1.8 V
    V(X60.nVCR1) = 295.275 mV
    V(X60.nVCtrl) = 1.8 V
    V(X60.nVDec) = 0 V
    V(X60.nVTMR) = 1.8 V
    I(X60.vISample:p) = 63.7244e-24 A
    V(X61.n50) = 0 V
    V(X61.n51) = 0 V
    V(X61.n60) = 0 V
    V(X61.n61) = 0 V
    V(X61.nBiStable) = 0 V
    V(X61.nFeedback) = 0 V
    V(X61.nINeg) = 6.9911 aV
    V(X61.nIPos) = -6.9911 aV
    V(X61.nRVFit) = 1.8 V
    V(X61.nVCR1) = 295.275 mV
    V(X61.nVCtrl) = 1.8 V
    V(X61.nVDec) = 0 V
    V(X61.nVTMR) = 1.8 V
    I(X61.vISample:p) = 63.9481e-24 A
    V(X62.n50) = 0 V
    V(X62.n51) = 0 V
    V(X62.n60) = 0 V
    V(X62.n61) = 0 V
    V(X62.nBiStable) = 0 V
    V(X62.nFeedback) = 0 V
    V(X62.nINeg) = 16.4566 aV
    V(X62.nIPos) = -16.4566 aV
    V(X62.nRVFit) = 1.8 V
    V(X62.nVCR1) = 295.275 mV
    V(X62.nVCtrl) = 1.8 V
    V(X62.nVDec) = 0 V
    V(X62.nVTMR) = 1.8 V
    I(X62.vISample:p) = 103.585e-24 A
    V(X63.n50) = 0 V
    V(X63.n51) = 0 V
    V(X63.n60) = 0 V
    V(X63.n61) = 0 V
    V(X63.nBiStable) = 0 V
    V(X63.nFeedback) = 0 V
    V(X63.nINeg) = 9.90791 aV
    V(X63.nIPos) = -9.90791 aV
    V(X63.nRVFit) = 1.8 V
    V(X63.nVCR1) = 295.275 mV
    V(X63.nVCtrl) = 1.8 V
    V(X63.nVDec) = 0 V
    V(X63.nVTMR) = 1.8 V
    I(X63.vISample:p) = 36.8572e-24 A
    V(X64.n50) = 0 V
    V(X64.n51) = 0 V
    V(X64.n60) = 0 V
    V(X64.n61) = 0 V
    V(X64.nBiStable) = 0 V
    V(X64.nFeedback) = 0 V
    V(X64.nINeg) = 12.0756 aV
    V(X64.nIPos) = -12.0756 aV
    V(X64.nRVFit) = 1.8 V
    V(X64.nVCR1) = 295.275 mV
    V(X64.nVCtrl) = 1.8 V
    V(X64.nVDec) = 0 V
    V(X64.nVTMR) = 1.8 V
    I(X64.vISample:p) = 86.5574e-24 A
    V(X65.n50) = 0 V
    V(X65.n51) = 0 V
    V(X65.n60) = 0 V
    V(X65.n61) = 0 V
    V(X65.nBiStable) = 0 V
    V(X65.nFeedback) = 0 V
    V(X65.nINeg) = -53.6735 aV
    V(X65.nIPos) = 53.6735 aV
    V(X65.nRVFit) = 1.8 V
    V(X65.nVCR1) = 295.275 mV
    V(X65.nVCtrl) = 1.8 V
    V(X65.nVDec) = 0 V
    V(X65.nVTMR) = 1.8 V
    I(X65.vISample:p) = -53.686e-24 A
    V(X66.n50) = 0 V
    V(X66.n51) = 0 V
    V(X66.n60) = 0 V
    V(X66.n61) = 0 V
    V(X66.nBiStable) = 0 V
    V(X66.nFeedback) = 0 V
    V(X66.nINeg) = -55.0622 aV
    V(X66.nIPos) = 55.0622 aV
    V(X66.nRVFit) = 1.8 V
    V(X66.nVCR1) = 295.275 mV
    V(X66.nVCtrl) = 1.8 V
    V(X66.nVDec) = 0 V
    V(X66.nVTMR) = 1.8 V
    I(X66.vISample:p) = -41.8991e-24 A
    V(X67.n50) = 0 V
    V(X67.n51) = 0 V
    V(X67.n60) = 0 V
    V(X67.n61) = 0 V
    V(X67.nBiStable) = 47.5273e-213 V
    V(X67.nFeedback) = 5.80167e-216 V
    V(X67.nINeg) = -49.3963 aV
    V(X67.nIPos) = 49.3963 aV
    V(X67.nRVFit) = 1.8 V
    V(X67.nVCR1) = 295.275 mV
    V(X67.nVCtrl) = 1.8 V
    V(X67.nVDec) = 0 V
    V(X67.nVTMR) = 1.8 V
    I(X67.vISample:p) = -87.2988e-24 A
    V(X68.n50) = 0 V
    V(X68.n51) = 0 V
    V(X68.n60) = 0 V
    V(X68.n61) = 0 V
    V(X68.nBiStable) = 47.5273e-213 V
    V(X68.nFeedback) = 5.80167e-216 V
    V(X68.nINeg) = -50.4543 aV
    V(X68.nIPos) = 50.4543 aV
    V(X68.nRVFit) = 1.8 V
    V(X68.nVCR1) = 295.275 mV
    V(X68.nVCtrl) = 1.8 V
    V(X68.nVDec) = 0 V
    V(X68.nVTMR) = 1.8 V
    I(X68.vISample:p) = -41.4879e-24 A
    V(X69.n50) = 0 V
    V(X69.n51) = 0 V
    V(X69.n60) = 0 V
    V(X69.n61) = 0 V
    V(X69.nBiStable) = 23.7636e-213 V
    V(X69.nFeedback) = 2.90084e-216 V
    V(X69.nINeg) = -54.1225 aV
    V(X69.nIPos) = 54.1225 aV
    V(X69.nRVFit) = 1.8 V
    V(X69.nVCR1) = 295.275 mV
    V(X69.nVCtrl) = 1.8 V
    V(X69.nVDec) = 0 V
    V(X69.nVTMR) = 1.8 V
    I(X69.vISample:p) = -42.2655e-24 A
    V(X70.n50) = 0 V
    V(X70.n51) = 0 V
    V(X70.n60) = 0 V
    V(X70.n61) = 0 V
    V(X70.nBiStable) = 0 V
    V(X70.nFeedback) = 0 V
    V(X70.nINeg) = -53.1021 aV
    V(X70.nIPos) = 53.1021 aV
    V(X70.nRVFit) = 1.8 V
    V(X70.nVCR1) = 295.275 mV
    V(X70.nVCtrl) = 1.8 V
    V(X70.nVDec) = 0 V
    V(X70.nVTMR) = 1.8 V
    I(X70.vISample:p) = -26.4956e-24 A
    V(X71.n50) = 0 V
    V(X71.n51) = 0 V
    V(X71.n60) = 0 V
    V(X71.n61) = 0 V
    V(X71.nBiStable) = 0 V
    V(X71.nFeedback) = 0 V
    V(X71.nINeg) = -51.9237 aV
    V(X71.nIPos) = 51.9237 aV
    V(X71.nRVFit) = 1.8 V
    V(X71.nVCR1) = 295.275 mV
    V(X71.nVCtrl) = 1.8 V
    V(X71.nVDec) = 0 V
    V(X71.nVTMR) = 1.8 V
    I(X71.vISample:p) = -34.0457e-24 A
    V(X72.n50) = 0 V
    V(X72.n51) = 0 V
    V(X72.n60) = 0 V
    V(X72.n61) = 0 V
    V(X72.nBiStable) = 23.7636e-213 V
    V(X72.nFeedback) = 2.90084e-216 V
    V(X72.nINeg) = -54.7005 aV
    V(X72.nIPos) = 54.7005 aV
    V(X72.nRVFit) = 1.8 V
    V(X72.nVCR1) = 295.275 mV
    V(X72.nVCtrl) = 1.8 V
    V(X72.nVDec) = 0 V
    V(X72.nVTMR) = 1.8 V
    I(X72.vISample:p) = -45.7061e-24 A
    V(X73.n50) = 0 V
    V(X73.n51) = 0 V
    V(X73.n60) = 0 V
    V(X73.n61) = 0 V
    V(X73.nBiStable) = 0 V
    V(X73.nFeedback) = 0 V
    V(X73.nINeg) = -53.5401 aV
    V(X73.nIPos) = 53.5401 aV
    V(X73.nRVFit) = 1.8 V
    V(X73.nVCR1) = 295.275 mV
    V(X73.nVCtrl) = 1.8 V
    V(X73.nVDec) = 0 V
    V(X73.nVTMR) = 1.8 V
    I(X73.vISample:p) = -26.3532e-24 A
    V(X74.n50) = 0 V
    V(X74.n51) = 0 V
    V(X74.n60) = 0 V
    V(X74.n61) = 0 V
    V(X74.nBiStable) = 0 V
    V(X74.nFeedback) = 0 V
    V(X74.nINeg) = -51.7093 aV
    V(X74.nIPos) = 51.7093 aV
    V(X74.nRVFit) = 1.8 V
    V(X74.nVCR1) = 295.275 mV
    V(X74.nVCtrl) = 1.8 V
    V(X74.nVDec) = 0 V
    V(X74.nVTMR) = 1.8 V
    I(X74.vISample:p) = -22.1468e-24 A
    V(X75.n50) = 0 V
    V(X75.n51) = 0 V
    V(X75.n60) = 0 V
    V(X75.n61) = 0 V
    V(X75.nBiStable) = 47.5273e-213 V
    V(X75.nFeedback) = 5.80167e-216 V
    V(X75.nINeg) = -50.6421 aV
    V(X75.nIPos) = 50.6421 aV
    V(X75.nRVFit) = 1.8 V
    V(X75.nVCR1) = 295.275 mV
    V(X75.nVCtrl) = 1.8 V
    V(X75.nVDec) = 0 V
    V(X75.nVTMR) = 1.8 V
    I(X75.vISample:p) = -40.7118e-24 A
    V(X76.n50) = 0 V
    V(X76.n51) = 0 V
    V(X76.n60) = 0 V
    V(X76.n61) = 0 V
    V(X76.nBiStable) = 0 V
    V(X76.nFeedback) = 0 V
    V(X76.nINeg) = -56.4714 aV
    V(X76.nIPos) = 0 V
    V(X76.nRVFit) = 1.8 V
    V(X76.nVCR1) = 295.275 mV
    V(X76.nVCtrl) = 1.8 V
    V(X76.nVDec) = 0 V
    V(X76.nVTMR) = 1.8 V
    I(X76.vISample:p) = 54.6207e-24 A
    V(X77.n50) = 0 V
    V(X77.n51) = 0 V
    V(X77.n60) = 0 V
    V(X77.n61) = 0 V
    V(X77.nBiStable) = 47.5273e-213 V
    V(X77.nFeedback) = 5.80167e-216 V
    V(X77.nINeg) = -52.086 aV
    V(X77.nIPos) = 52.086 aV
    V(X77.nRVFit) = 1.8 V
    V(X77.nVCR1) = 295.275 mV
    V(X77.nVCtrl) = 1.8 V
    V(X77.nVDec) = 0 V
    V(X77.nVTMR) = 1.8 V
    I(X77.vISample:p) = -39.4846e-24 A
    V(X78.n50) = 0 V
    V(X78.n51) = 0 V
    V(X78.n60) = 0 V
    V(X78.n61) = 0 V
    V(X78.nBiStable) = 0 V
    V(X78.nFeedback) = 0 V
    V(X78.nINeg) = -52.9322 aV
    V(X78.nIPos) = 52.9322 aV
    V(X78.nRVFit) = 1.8 V
    V(X78.nVCR1) = 295.275 mV
    V(X78.nVCtrl) = 1.8 V
    V(X78.nVDec) = 0 V
    V(X78.nVTMR) = 1.8 V
    I(X78.vISample:p) = -36.7119e-24 A
    V(X79.n50) = 0 V
    V(X79.n51) = 0 V
    V(X79.n60) = 0 V
    V(X79.n61) = 0 V
    V(X79.nBiStable) = -11.8818e-213 V
    V(X79.nFeedback) = -1.45042e-216 V
    V(X79.nINeg) = -55.3173 aV
    V(X79.nIPos) = 55.3173 aV
    V(X79.nRVFit) = 1.8 V
    V(X79.nVCR1) = 295.275 mV
    V(X79.nVCtrl) = 1.8 V
    V(X79.nVDec) = 0 V
    V(X79.nVTMR) = 1.8 V
    I(X79.vISample:p) = -40.5733e-24 A
    V(X80.n50) = 0 V
    V(X80.n51) = 0 V
    V(X80.n60) = 0 V
    V(X80.n61) = 0 V
    V(X80.nBiStable) = 47.5273e-213 V
    V(X80.nFeedback) = 5.80167e-216 V
    V(X80.nINeg) = -56.5905 aV
    V(X80.nIPos) = 0 V
    V(X80.nRVFit) = 1.8 V
    V(X80.nVCR1) = 295.275 mV
    V(X80.nVCtrl) = 1.8 V
    V(X80.nVDec) = 0 V
    V(X80.nVTMR) = 1.8 V
    I(X80.vISample:p) = -53.5386e-24 A
    V(X81.n50) = 0 V
    V(X81.n51) = 0 V
    V(X81.n60) = 0 V
    V(X81.n61) = 0 V
    V(X81.nBiStable) = 47.5273e-213 V
    V(X81.nFeedback) = 5.80167e-216 V
    V(X81.nINeg) = -55.3887 aV
    V(X81.nIPos) = 55.3887 aV
    V(X81.nRVFit) = 1.8 V
    V(X81.nVCR1) = 295.275 mV
    V(X81.nVCtrl) = 1.8 V
    V(X81.nVDec) = 0 V
    V(X81.nVTMR) = 1.8 V
    I(X81.vISample:p) = -40.3608e-24 A
    V(X82.n50) = 0 V
    V(X82.n51) = 0 V
    V(X82.n60) = 0 V
    V(X82.n61) = 0 V
    V(X82.nBiStable) = -2.97046e-213 V
    V(X82.nFeedback) = -362.604e-219 V
    V(X82.nINeg) = -52.9466 aV
    V(X82.nIPos) = 52.9466 aV
    V(X82.nRVFit) = 1.8 V
    V(X82.nVCR1) = 295.275 mV
    V(X82.nVCtrl) = 1.8 V
    V(X82.nVDec) = 0 V
    V(X82.nVTMR) = 1.8 V
    I(X82.vISample:p) = -43.1661e-24 A
    V(X83.n50) = 0 V
    V(X83.n51) = 0 V
    V(X83.n60) = 0 V
    V(X83.n61) = 0 V
    V(X83.nBiStable) = 2.97046e-213 V
    V(X83.nFeedback) = 362.604e-219 V
    V(X83.nINeg) = -58.2624 aV
    V(X83.nIPos) = 0 V
    V(X83.nRVFit) = 1.8 V
    V(X83.nVCR1) = 295.275 mV
    V(X83.nVCtrl) = 1.8 V
    V(X83.nVDec) = 0 V
    V(X83.nVTMR) = 1.8 V
    I(X83.vISample:p) = 121.822e-24 A
    V(X84.n50) = 0 V
    V(X84.n51) = 0 V
    V(X84.n60) = 0 V
    V(X84.n61) = 0 V
    V(X84.nBiStable) = 47.5273e-213 V
    V(X84.nFeedback) = 5.80167e-216 V
    V(X84.nINeg) = -43.5691 aV
    V(X84.nIPos) = 43.5691 aV
    V(X84.nRVFit) = 1.8 V
    V(X84.nVCR1) = 295.275 mV
    V(X84.nVCtrl) = 1.8 V
    V(X84.nVDec) = 0 V
    V(X84.nVTMR) = 1.8 V
    I(X84.vISample:p) = -228.493e-24 A
    V(X85.n50) = 0 V
    V(X85.n51) = 0 V
    V(X85.n60) = 0 V
    V(X85.n61) = 0 V
    V(X85.nBiStable) = 47.5273e-213 V
    V(X85.nFeedback) = 5.80167e-216 V
    V(X85.nINeg) = -55.7388 aV
    V(X85.nIPos) = 55.7388 aV
    V(X85.nRVFit) = 1.8 V
    V(X85.nVCR1) = 295.275 mV
    V(X85.nVCtrl) = 1.8 V
    V(X85.nVDec) = 0 V
    V(X85.nVTMR) = 1.8 V
    I(X85.vISample:p) = -38.5232e-24 A
    V(X86.n50) = 0 V
    V(X86.n51) = 0 V
    V(X86.n60) = 0 V
    V(X86.n61) = 0 V
    V(X86.nBiStable) = 23.7636e-213 V
    V(X86.nFeedback) = 2.90084e-216 V
    V(X86.nINeg) = -54.886 aV
    V(X86.nIPos) = 54.886 aV
    V(X86.nRVFit) = 1.8 V
    V(X86.nVCR1) = 295.275 mV
    V(X86.nVCtrl) = 1.8 V
    V(X86.nVDec) = 0 V
    V(X86.nVTMR) = 1.8 V
    I(X86.vISample:p) = -51.6888e-24 A
    V(X87.n50) = 0 V
    V(X87.n51) = 0 V
    V(X87.n60) = 0 V
    V(X87.n61) = 0 V
    V(X87.nBiStable) = 2.97046e-213 V
    V(X87.nFeedback) = 362.604e-219 V
    V(X87.nINeg) = -56.6055 aV
    V(X87.nIPos) = 0 V
    V(X87.nRVFit) = 1.8 V
    V(X87.nVCR1) = 295.275 mV
    V(X87.nVCtrl) = 1.8 V
    V(X87.nVDec) = 0 V
    V(X87.nVTMR) = 1.8 V
    I(X87.vISample:p) = -39.0316e-24 A
    V(X88.n50) = 0 V
    V(X88.n51) = 0 V
    V(X88.n60) = 0 V
    V(X88.n61) = 0 V
    V(X88.nBiStable) = -23.7636e-213 V
    V(X88.nFeedback) = -2.90084e-216 V
    V(X88.nINeg) = -54.7526 aV
    V(X88.nIPos) = 54.7526 aV
    V(X88.nRVFit) = 1.8 V
    V(X88.nVCR1) = 295.275 mV
    V(X88.nVCtrl) = 1.8 V
    V(X88.nVDec) = 0 V
    V(X88.nVTMR) = 1.8 V
    I(X88.vISample:p) = -66.3612e-24 A
    V(X89.n50) = 0 V
    V(X89.n51) = 0 V
    V(X89.n60) = 0 V
    V(X89.n61) = 0 V
    V(X89.nBiStable) = 0 V
    V(X89.nFeedback) = 0 V
    V(X89.nINeg) = -55.6865 aV
    V(X89.nIPos) = 55.6865 aV
    V(X89.nRVFit) = 1.8 V
    V(X89.nVCR1) = 295.275 mV
    V(X89.nVCtrl) = 1.8 V
    V(X89.nVDec) = 0 V
    V(X89.nVTMR) = 1.8 V
    I(X89.vISample:p) = -51.714e-24 A
    V(X90.n50) = 0 V
    V(X90.n51) = 0 V
    V(X90.n60) = 0 V
    V(X90.n61) = 0 V
    V(X90.nBiStable) = 0 V
    V(X90.nFeedback) = 0 V
    V(X90.nINeg) = 0 V
    V(X90.nIPos) = -119.545 aV
    V(X90.nRVFit) = 1.8 V
    V(X90.nVCR1) = 295.275 mV
    V(X90.nVCtrl) = 1.8 V
    V(X90.nVDec) = 0 V
    V(X90.nVTMR) = 1.8 V
    I(X90.vISample:p) = 1.25944e-21 A
    V(X91.n50) = 0 V
    V(X91.n51) = 0 V
    V(X91.n60) = 0 V
    V(X91.n61) = 0 V
    V(X91.nBiStable) = -23.7636e-213 V
    V(X91.nFeedback) = -2.90084e-216 V
    V(X91.nINeg) = -55.6801 aV
    V(X91.nIPos) = 55.6801 aV
    V(X91.nRVFit) = 1.8 V
    V(X91.nVCR1) = 295.275 mV
    V(X91.nVCtrl) = 1.8 V
    V(X91.nVDec) = 0 V
    V(X91.nVTMR) = 1.8 V
    I(X91.vISample:p) = -44.5874e-24 A
    V(X92.n50) = 0 V
    V(X92.n51) = 0 V
    V(X92.n60) = 0 V
    V(X92.n61) = 0 V
    V(X92.nBiStable) = 0 V
    V(X92.nFeedback) = 0 V
    V(X92.nINeg) = -54.0407 aV
    V(X92.nIPos) = 54.0407 aV
    V(X92.nRVFit) = 1.8 V
    V(X92.nVCR1) = 295.275 mV
    V(X92.nVCtrl) = 1.8 V
    V(X92.nVDec) = 0 V
    V(X92.nVTMR) = 1.8 V
    I(X92.vISample:p) = -46.676e-24 A
    V(X93.n50) = 0 V
    V(X93.n51) = 0 V
    V(X93.n60) = 0 V
    V(X93.n61) = 0 V
    V(X93.nBiStable) = 0 V
    V(X93.nFeedback) = 0 V
    V(X93.nINeg) = -55.3034 aV
    V(X93.nIPos) = 55.3034 aV
    V(X93.nRVFit) = 1.8 V
    V(X93.nVCR1) = 295.275 mV
    V(X93.nVCtrl) = 1.8 V
    V(X93.nVDec) = 0 V
    V(X93.nVTMR) = 1.8 V
    I(X93.vISample:p) = -33.2792e-24 A
    V(X94.n50) = 0 V
    V(X94.n51) = 0 V
    V(X94.n60) = 0 V
    V(X94.n61) = 0 V
    V(X94.nBiStable) = 23.7636e-213 V
    V(X94.nFeedback) = 2.90084e-216 V
    V(X94.nINeg) = -57.405 aV
    V(X94.nIPos) = 0 V
    V(X94.nRVFit) = 1.8 V
    V(X94.nVCR1) = 295.275 mV
    V(X94.nVCtrl) = 1.8 V
    V(X94.nVDec) = 0 V
    V(X94.nVTMR) = 1.8 V
    I(X94.vISample:p) = -38.376e-24 A
    V(X95.n50) = 0 V
    V(X95.n51) = 0 V
    V(X95.n60) = 0 V
    V(X95.n61) = 0 V
    V(X95.nBiStable) = -11.8818e-213 V
    V(X95.nFeedback) = -1.45042e-216 V
    V(X95.nINeg) = -55.4976 aV
    V(X95.nIPos) = 55.4976 aV
    V(X95.nRVFit) = 1.8 V
    V(X95.nVCR1) = 295.275 mV
    V(X95.nVCtrl) = 1.8 V
    V(X95.nVDec) = 0 V
    V(X95.nVTMR) = 1.8 V
    I(X95.vISample:p) = -36.8437e-24 A
    V(X96.n50) = 0 V
    V(X96.n51) = 0 V
    V(X96.n60) = 0 V
    V(X96.n61) = 0 V
    V(X96.nBiStable) = -23.7636e-213 V
    V(X96.nFeedback) = -2.90084e-216 V
    V(X96.nINeg) = -56.3675 aV
    V(X96.nIPos) = 0 V
    V(X96.nRVFit) = 1.8 V
    V(X96.nVCR1) = 295.275 mV
    V(X96.nVCtrl) = 1.8 V
    V(X96.nVDec) = 0 V
    V(X96.nVTMR) = 1.8 V
    I(X96.vISample:p) = -44.3686e-24 A
    V(X97.n50) = 0 V
    V(X97.n51) = 0 V
    V(X97.n60) = 0 V
    V(X97.n61) = 0 V
    V(X97.nBiStable) = 23.7636e-213 V
    V(X97.nFeedback) = 2.90084e-216 V
    V(X97.nINeg) = 12.6598 aV
    V(X97.nIPos) = -12.6598 aV
    V(X97.nRVFit) = 1.8 V
    V(X97.nVCR1) = 295.275 mV
    V(X97.nVCtrl) = 1.8 V
    V(X97.nVDec) = 0 V
    V(X97.nVTMR) = 1.8 V
    I(X97.vISample:p) = 79.4022e-24 A
    V(X98.n50) = 0 V
    V(X98.n51) = 0 V
    V(X98.n60) = 0 V
    V(X98.n61) = 0 V
    V(X98.nBiStable) = 47.5273e-213 V
    V(X98.nFeedback) = 5.80167e-216 V
    V(X98.nINeg) = 14.8863 aV
    V(X98.nIPos) = -14.8863 aV
    V(X98.nRVFit) = 1.8 V
    V(X98.nVCR1) = 295.275 mV
    V(X98.nVCtrl) = 1.8 V
    V(X98.nVDec) = 0 V
    V(X98.nVTMR) = 1.8 V
    I(X98.vISample:p) = 78.8048e-24 A
    V(X99.n50) = 0 V
    V(X99.n51) = 0 V
    V(X99.n60) = 0 V
    V(X99.n61) = 0 V
    V(X99.nBiStable) = 0 V
    V(X99.nFeedback) = 0 V
    V(X99.nINeg) = 14.0311 aV
    V(X99.nIPos) = -14.0311 aV
    V(X99.nRVFit) = 1.8 V
    V(X99.nVCR1) = 295.275 mV
    V(X99.nVCtrl) = 1.8 V
    V(X99.nVDec) = 0 V
    V(X99.nVTMR) = 1.8 V
    I(X99.vISample:p) = 88.9605e-24 A
    V(X100.n50) = 0 V
    V(X100.n51) = 0 V
    V(X100.n60) = 0 V
    V(X100.n61) = 0 V
    V(X100.nBiStable) = -23.7636e-213 V
    V(X100.nFeedback) = -2.90084e-216 V
    V(X100.nINeg) = 15.1455 aV
    V(X100.nIPos) = -15.1455 aV
    V(X100.nRVFit) = 1.8 V
    V(X100.nVCR1) = 295.275 mV
    V(X100.nVCtrl) = 1.8 V
    V(X100.nVDec) = 0 V
    V(X100.nVTMR) = 1.8 V
    I(X100.vISample:p) = 72.8308e-24 A
    V(X101.n50) = 0 V
    V(X101.n51) = 0 V
    V(X101.n60) = 0 V
    V(X101.n61) = 0 V
    V(X101.nBiStable) = 5.94091e-213 V
    V(X101.nFeedback) = 725.209e-219 V
    V(X101.nINeg) = 14.2712 aV
    V(X101.nIPos) = -14.2712 aV
    V(X101.nRVFit) = 1.8 V
    V(X101.nVCR1) = 295.275 mV
    V(X101.nVCtrl) = 1.8 V
    V(X101.nVDec) = 0 V
    V(X101.nVTMR) = 1.8 V
    I(X101.vISample:p) = 70.4414e-24 A
    V(X102.n50) = 0 V
    V(X102.n51) = 0 V
    V(X102.n60) = 0 V
    V(X102.n61) = 0 V
    V(X102.nBiStable) = 0 V
    V(X102.nFeedback) = 0 V
    V(X102.nINeg) = 15.1173 aV
    V(X102.nIPos) = -15.1173 aV
    V(X102.nRVFit) = 1.8 V
    V(X102.nVCR1) = 295.275 mV
    V(X102.nVCtrl) = 1.8 V
    V(X102.nVDec) = 0 V
    V(X102.nVTMR) = 1.8 V
    I(X102.vISample:p) = 84.1814e-24 A
    V(X103.n50) = 0 V
    V(X103.n51) = 0 V
    V(X103.n60) = 0 V
    V(X103.n61) = 0 V
    V(X103.nBiStable) = 0 V
    V(X103.nFeedback) = 0 V
    V(X103.nINeg) = 14.1404 aV
    V(X103.nIPos) = -14.1404 aV
    V(X103.nRVFit) = 1.8 V
    V(X103.nVCR1) = 295.275 mV
    V(X103.nVCtrl) = 1.8 V
    V(X103.nVDec) = 0 V
    V(X103.nVTMR) = 1.8 V
    I(X103.vISample:p) = 89.2591e-24 A
    V(X104.n50) = 0 V
    V(X104.n51) = 0 V
    V(X104.n60) = 0 V
    V(X104.n61) = 0 V
    V(X104.nBiStable) = 0 V
    V(X104.nFeedback) = 0 V
    V(X104.nINeg) = 15.5485 aV
    V(X104.nIPos) = -15.5485 aV
    V(X104.nRVFit) = 1.8 V
    V(X104.nVCR1) = 295.275 mV
    V(X104.nVCtrl) = 1.8 V
    V(X104.nVDec) = 0 V
    V(X104.nVTMR) = 1.8 V
    I(X104.vISample:p) = 84.7788e-24 A
    V(X105.n50) = 0 V
    V(X105.n51) = 0 V
    V(X105.n60) = 0 V
    V(X105.n61) = 0 V
    V(X105.nBiStable) = -11.8818e-213 V
    V(X105.nFeedback) = -1.45042e-216 V
    V(X105.nINeg) = 12.2778 aV
    V(X105.nIPos) = -12.2778 aV
    V(X105.nRVFit) = 1.8 V
    V(X105.nVCR1) = 295.275 mV
    V(X105.nVCtrl) = 1.8 V
    V(X105.nVDec) = 0 V
    V(X105.nVTMR) = 1.8 V
    I(X105.vISample:p) = 69.5454e-24 A
    V(X106.n50) = 0 V
    V(X106.n51) = 0 V
    V(X106.n60) = 0 V
    V(X106.n61) = 0 V
    V(X106.nBiStable) = 0 V
    V(X106.nFeedback) = 0 V
    V(X106.nINeg) = 14.7646 aV
    V(X106.nIPos) = -14.7646 aV
    V(X106.nRVFit) = 1.8 V
    V(X106.nVCR1) = 295.275 mV
[...]
          p : V(NM167) = 295.275 mV
          n : V(X167.nVCR1) = 295.275 mV
          v = 0 V
          i = -163.193e-24 A
        pwr = -0 W

Instance: X168.vISample of MTJT
Model: vsource
Primitive: vsource
          p : V(NM168) = 295.275 mV
          n : V(X168.nVCR1) = 295.275 mV
          v = 0 V
          i = -189.045e-24 A
        pwr = -0 W

Instance: X169.vISample of MTJT
Model: vsource
Primitive: vsource
          p : V(NM169) = 295.275 mV
          n : V(X169.nVCR1) = 295.275 mV
          v = 0 V
          i = -184.107e-24 A
        pwr = -0 W

Instance: X170.vISample of MTJT
Model: vsource
Primitive: vsource
          p : V(NM170) = 295.275 mV
          n : V(X170.nVCR1) = 295.275 mV
          v = 0 V
          i = -183.879e-24 A
        pwr = -0 W

Instance: X171.vISample of MTJT
Model: vsource
Primitive: vsource
          p : V(NM171) = 295.275 mV
          n : V(X171.nVCR1) = 295.275 mV
          v = 0 V
          i = -186.9e-24 A
        pwr = -0 W

Instance: X172.vISample of MTJT
Model: vsource
Primitive: vsource
          p : V(NM172) = 295.275 mV
          n : V(X172.nVCR1) = 295.275 mV
          v = 0 V
          i = -119.605e-24 A
        pwr = -0 W

Instance: X173.vISample of MTJT
Model: vsource
Primitive: vsource
          p : V(NM173) = 295.275 mV
          n : V(X173.nVCR1) = 295.275 mV
          v = 0 V
          i = -198.933e-24 A
        pwr = -0 W

Instance: X174.vISample of MTJT
Model: vsource
Primitive: vsource
          p : V(NM174) = 295.275 mV
          n : V(X174.nVCR1) = 295.275 mV
          v = 0 V
          i = -198.239e-24 A
        pwr = -0 W

Instance: X175.vISample of MTJT
Model: vsource
Primitive: vsource
          p : V(NM175) = 295.275 mV
          n : V(X175.nVCR1) = 295.275 mV
          v = 0 V
          i = -194.418e-24 A
        pwr = -0 W

Instance: X176.vISample of MTJT
Model: vsource
Primitive: vsource
          p : V(NM176) = 295.275 mV
          n : V(X176.nVCR1) = 295.275 mV
          v = 0 V
          i = -207.315e-24 A
        pwr = -0 W

Instance: X177.vISample of MTJT
Model: vsource
Primitive: vsource
          p : V(NM177) = 295.275 mV
          n : V(X177.nVCR1) = 295.275 mV
          v = 0 V
          i = -220.191e-24 A
        pwr = -0 W

Instance: X178.vISample of MTJT
Model: vsource
Primitive: vsource
          p : V(NM178) = 295.275 mV
          n : V(X178.nVCR1) = 295.275 mV
          v = 0 V
          i = -208.404e-24 A
        pwr = -0 W

Instance: X179.vISample of MTJT
Model: vsource
Primitive: vsource
          p : V(NM179) = 295.275 mV
          n : V(X179.nVCR1) = 295.275 mV
          v = 0 V
          i = -39.566e-24 A
        pwr = -0 W

Instance: X180.vISample of MTJT
Model: vsource
Primitive: vsource
          p : V(NM180) = 295.275 mV
          n : V(X180.nVCR1) = 295.275 mV
          v = 0 V
          i = -216.995e-24 A
        pwr = -0 W

Instance: X181.vISample of MTJT
Model: vsource
Primitive: vsource
          p : V(NM181) = 295.275 mV
          n : V(X181.nVCR1) = 295.275 mV
          v = 0 V
          i = -219.732e-24 A
        pwr = -0 W

Instance: X182.vISample of MTJT
Model: vsource
Primitive: vsource
          p : V(NM182) = 295.275 mV
          n : V(X182.nVCR1) = 295.275 mV
          v = 0 V
          i = -206.106e-24 A
        pwr = -0 W

Instance: X183.vISample of MTJT
Model: vsource
Primitive: vsource
          p : V(NM183) = 295.275 mV
          n : V(X183.nVCR1) = 295.275 mV
          v = 0 V
          i = -206.251e-24 A
        pwr = -0 W

Instance: X184.vISample of MTJT
Model: vsource
Primitive: vsource
          p : V(NM184) = 295.275 mV
          n : V(X184.nVCR1) = 295.275 mV
          v = 0 V
          i = -206.466e-24 A
        pwr = -0 W

Instance: X185.vISample of MTJT
Model: vsource
Primitive: vsource
          p : V(NM185) = 295.275 mV
          n : V(X185.nVCR1) = 295.275 mV
          v = 0 V
          i = -206.299e-24 A
        pwr = -0 W

Instance: X186.vISample of MTJT
Model: vsource
Primitive: vsource
          p : V(NM186) = 295.275 mV
          n : V(X186.nVCR1) = 295.275 mV
          v = 0 V
          i = 5.98933e-21 A
        pwr = 0 W

Instance: X187.vISample of MTJT
Model: vsource
Primitive: vsource
          p : V(NM187) = 295.275 mV
          n : V(X187.nVCR1) = 295.275 mV
          v = 0 V
          i = -195.525e-24 A
        pwr = -0 W

Instance: X188.vISample of MTJT
Model: vsource
Primitive: vsource
          p : V(NM188) = 295.275 mV
          n : V(X188.nVCR1) = 295.275 mV
          v = 0 V
          i = -203.546e-24 A
        pwr = -0 W

Instance: X189.vISample of MTJT
Model: vsource
Primitive: vsource
          p : V(NM189) = 295.275 mV
          n : V(X189.nVCR1) = 295.275 mV
          v = 0 V
          i = -173.881e-24 A
        pwr = -0 W

Instance: X190.vISample of MTJT
Model: vsource
Primitive: vsource
          p : V(NM190) = 295.275 mV
          n : V(X190.nVCR1) = 295.275 mV
          v = 0 V
          i = -193.122e-24 A
        pwr = -0 W

Instance: X191.vISample of MTJT
Model: vsource
Primitive: vsource
          p : V(NM191) = 295.275 mV
          n : V(X191.nVCR1) = 295.275 mV
          v = 0 V
          i = -191.349e-24 A
        pwr = -0 W

Instance: X192.vISample of MTJT
Model: vsource
Primitive: vsource
          p : V(NM192) = 295.275 mV
          n : V(X192.nVCR1) = 295.275 mV
          v = 0 V
          i = -201.663e-24 A
        pwr = -0 W

Instance: X193.vISample of MTJT
Model: vsource
Primitive: vsource
          p : V(NM193) = 295.275 mV
          n : V(X193.nVCR1) = 295.275 mV
          v = 0 V
          i = 97.473e-24 A
        pwr = 0 W

Instance: X194.vISample of MTJT
Model: vsource
Primitive: vsource
          p : V(NM194) = 295.275 mV
          n : V(X194.nVCR1) = 295.275 mV
          v = 0 V
          i = 101.655e-24 A
        pwr = 0 W

Instance: X195.vISample of MTJT
Model: vsource
Primitive: vsource
          p : V(NM195) = 295.275 mV
          n : V(X195.nVCR1) = 295.275 mV
          v = 0 V
          i = 107.031e-24 A
        pwr = 0 W

Instance: X196.vISample of MTJT
Model: vsource
Primitive: vsource
          p : V(NM196) = 295.275 mV
          n : V(X196.nVCR1) = 295.275 mV
          v = 0 V
          i = 90.9015e-24 A
        pwr = 0 W

Instance: X197.vISample of MTJT
Model: vsource
Primitive: vsource
          p : V(NM197) = 295.275 mV
          n : V(X197.nVCR1) = 295.275 mV
          v = 0 V
          i = 93.2913e-24 A
        pwr = 0 W

Instance: X198.vISample of MTJT
Model: vsource
Primitive: vsource
          p : V(NM198) = 295.275 mV
          n : V(X198.nVCR1) = 295.275 mV
          v = 0 V
          i = 111.81e-24 A
        pwr = 0 W

Instance: X199.vISample of MTJT
Model: vsource
Primitive: vsource
          p : V(NM199) = 295.275 mV
          n : V(X199.nVCR1) = 295.275 mV
          v = 0 V
          i = 104.94e-24 A
        pwr = 0 W

Instance: X200.vISample of MTJT
Model: vsource
Primitive: vsource
          p : V(NM200) = 295.275 mV
          n : V(X200.nVCR1) = 295.275 mV
          v = 0 V
          i = 107.629e-24 A
        pwr = 0 W

Instance: X201.vISample of MTJT
Model: vsource
Primitive: vsource
          p : V(NM201) = 295.275 mV
          n : V(X201.nVCR1) = 295.275 mV
          v = 0 V
          i = 109.122e-24 A
        pwr = 0 W

Instance: X202.vISample of MTJT
Model: vsource
Primitive: vsource
          p : V(NM202) = 295.275 mV
          n : V(X202.nVCR1) = 295.275 mV
          v = 0 V
          i = 126.148e-24 A
        pwr = 0 W

Instance: X203.vISample of MTJT
Model: vsource
Primitive: vsource
          p : V(NM203) = 295.275 mV
          n : V(X203.nVCR1) = 295.275 mV
          v = 0 V
          i = 104.044e-24 A
        pwr = 0 W

Instance: X204.vISample of MTJT
Model: vsource
Primitive: vsource
          p : V(NM204) = 295.275 mV
          n : V(X204.nVCR1) = 295.275 mV
          v = 0 V
          i = 104.641e-24 A
        pwr = 0 W

Instance: X205.vISample of MTJT
Model: vsource
Primitive: vsource
          p : V(NM205) = 295.275 mV
          n : V(X205.nVCR1) = 295.275 mV
          v = 0 V
          i = 100.46e-24 A
        pwr = 0 W

Instance: X206.vISample of MTJT
Model: vsource
Primitive: vsource
          p : V(NM206) = 295.275 mV
          n : V(X206.nVCR1) = 295.275 mV
          v = 0 V
          i = 102.849e-24 A
        pwr = 0 W

Instance: X207.vISample of MTJT
Model: vsource
Primitive: vsource
          p : V(NM207) = 295.275 mV
          n : V(X207.nVCR1) = 295.275 mV
          v = 0 V
          i = 111.81e-24 A
        pwr = 0 W

Instance: X208.vISample of MTJT
Model: vsource
Primitive: vsource
          p : V(NM208) = 295.275 mV
          n : V(X208.nVCR1) = 295.275 mV
          v = 0 V
          i = 96.8756e-24 A
        pwr = 0 W

Instance: X209.vISample of MTJT
Model: vsource
Primitive: vsource
          p : V(NM209) = 295.275 mV
          n : V(X209.nVCR1) = 295.275 mV
          v = 0 V
          i = 92.6939e-24 A
        pwr = 0 W

Instance: X210.vISample of MTJT
Model: vsource
Primitive: vsource
          p : V(NM210) = 295.275 mV
          n : V(X210.nVCR1) = 295.275 mV
          v = 0 V
          i = 96.2782e-24 A
        pwr = 0 W

Instance: X211.vISample of MTJT
Model: vsource
Primitive: vsource
          p : V(NM211) = 295.275 mV
          n : V(X211.nVCR1) = 295.275 mV
          v = 0 V
          i = 109.122e-24 A
        pwr = 0 W

Instance: X212.vISample of MTJT
Model: vsource
Primitive: vsource
          p : V(NM212) = 295.275 mV
          n : V(X212.nVCR1) = 295.275 mV
          v = 0 V
          i = 94.9331e-24 A
        pwr = 0 W

Instance: X213.vISample of MTJT
Model: vsource
Primitive: vsource
          p : V(NM213) = 295.275 mV
          n : V(X213.nVCR1) = 295.275 mV
          v = 0 V
          i = 92.6939e-24 A
        pwr = 0 W

Instance: X214.vISample of MTJT
Model: vsource
Primitive: vsource
          p : V(NM214) = 295.275 mV
          n : V(X214.nVCR1) = 295.275 mV
          v = 0 V
          i = 93.2912e-24 A
        pwr = 0 W

Instance: X215.vISample of MTJT
Model: vsource
Primitive: vsource
          p : V(NM215) = 295.275 mV
          n : V(X215.nVCR1) = 295.275 mV
          v = 0 V
          i = 93.2914e-24 A
        pwr = 0 W

Instance: X216.vISample of MTJT
Model: vsource
Primitive: vsource
          p : V(NM216) = 295.275 mV
          n : V(X216.nVCR1) = 295.275 mV
          v = 0 V
          i = 93.2913e-24 A
        pwr = 0 W

Instance: X217.vISample of MTJT
Model: vsource
Primitive: vsource
          p : V(NM217) = 295.275 mV
          n : V(X217.nVCR1) = 295.275 mV
          v = 0 V
          i = 95.382e-24 A
        pwr = 0 W

Instance: X218.vISample of MTJT
Model: vsource
Primitive: vsource
          p : V(NM218) = 295.275 mV
          n : V(X218.nVCR1) = 295.275 mV
          v = 0 V
          i = -3.13979e-21 A
        pwr = -0 W

Instance: X219.vISample of MTJT
Model: vsource
Primitive: vsource
          p : V(NM219) = 295.275 mV
          n : V(X219.nVCR1) = 295.275 mV
          v = 0 V
          i = 96.2782e-24 A
        pwr = 0 W

Instance: X220.vISample of MTJT
Model: vsource
Primitive: vsource
          p : V(NM220) = 295.275 mV
          n : V(X220.nVCR1) = 295.275 mV
          v = 0 V
          i = 104.94e-24 A
        pwr = 0 W

Instance: X221.vISample of MTJT
Model: vsource
Primitive: vsource
          p : V(NM221) = 295.275 mV
          n : V(X221.nVCR1) = 295.275 mV
          v = 0 V
          i = 110.914e-24 A
        pwr = 0 W

Instance: X222.vISample of MTJT
Model: vsource
Primitive: vsource
          p : V(NM222) = 295.275 mV
          n : V(X222.nVCR1) = 295.275 mV
          v = 0 V
          i = 93.8888e-24 A
        pwr = 0 W

Instance: X223.vISample of MTJT
Model: vsource
Primitive: vsource
          p : V(NM223) = 295.275 mV
          n : V(X223.nVCR1) = 295.275 mV
          v = 0 V
          i = 104.642e-24 A
        pwr = 0 W

Instance: X224.vISample of MTJT
Model: vsource
Primitive: vsource
          p : V(NM224) = 295.275 mV
          n : V(X224.nVCR1) = 295.275 mV
          v = 0 V
          i = 97.473e-24 A
        pwr = 0 W

Instance: X225.vISample of MTJT
Model: vsource
Primitive: vsource
          p : V(NM225) = 295.275 mV
          n : V(X225.nVCR1) = 295.275 mV
          v = 0 V
          i = 37.708e-24 A
        pwr = 0 W

Instance: X226.vISample of MTJT
Model: vsource
Primitive: vsource
          p : V(NM226) = 295.275 mV
          n : V(X226.nVCR1) = 295.275 mV
          v = 0 V
          i = 33.9174e-24 A
        pwr = 0 W

Instance: X227.vISample of MTJT
Model: vsource
Primitive: vsource
          p : V(NM227) = 295.275 mV
          n : V(X227.nVCR1) = 295.275 mV
          v = 0 V
          i = 4.2983e-24 A
        pwr = 0 W

Instance: X228.vISample of MTJT
Model: vsource
Primitive: vsource
          p : V(NM228) = 295.275 mV
          n : V(X228.nVCR1) = 295.275 mV
          v = 0 V
          i = 48.9303e-24 A
        pwr = 0 W

Instance: X229.vISample of MTJT
Model: vsource
Primitive: vsource
          p : V(NM229) = 295.275 mV
          n : V(X229.nVCR1) = 295.275 mV
          v = 0 V
          i = 25.9019e-24 A
        pwr = 0 W

Instance: X230.vISample of MTJT
Model: vsource
Primitive: vsource
          p : V(NM230) = 295.275 mV
          n : V(X230.nVCR1) = 295.275 mV
          v = 0 V
          i = 70.431e-24 A
        pwr = 0 W

Instance: X231.vISample of MTJT
Model: vsource
Primitive: vsource
          p : V(NM231) = 295.275 mV
          n : V(X231.nVCR1) = 295.275 mV
          v = 0 V
          i = 57.5534e-24 A
        pwr = 0 W

Instance: X232.vISample of MTJT
Model: vsource
Primitive: vsource
          p : V(NM232) = 295.275 mV
          n : V(X232.nVCR1) = 295.275 mV
          v = 0 V
          i = 40.966e-24 A
        pwr = 0 W

Instance: X233.vISample of MTJT
Model: vsource
Primitive: vsource
          p : V(NM233) = 295.275 mV
          n : V(X233.nVCR1) = 295.275 mV
          v = 0 V
          i = 56.6313e-24 A
        pwr = 0 W

Instance: X234.vISample of MTJT
Model: vsource
Primitive: vsource
          p : V(NM234) = 295.275 mV
          n : V(X234.nVCR1) = 295.275 mV
          v = 0 V
          i = 51.6569e-24 A
        pwr = 0 W

Instance: X235.vISample of MTJT
Model: vsource
Primitive: vsource
          p : V(NM235) = 295.275 mV
          n : V(X235.nVCR1) = 295.275 mV
          v = 0 V
          i = 50.7744e-24 A
        pwr = 0 W

Instance: X236.vISample of MTJT
Model: vsource
Primitive: vsource
          p : V(NM236) = 295.275 mV
          n : V(X236.nVCR1) = 295.275 mV
          v = 0 V
          i = 109.885e-24 A
        pwr = 0 W

Instance: X237.vISample of MTJT
Model: vsource
Primitive: vsource
          p : V(NM237) = 295.275 mV
          n : V(X237.nVCR1) = 295.275 mV
          v = 0 V
          i = 61.9553e-24 A
        pwr = 0 W

Instance: X238.vISample of MTJT
Model: vsource
Primitive: vsource
          p : V(NM238) = 295.275 mV
          n : V(X238.nVCR1) = 295.275 mV
          v = 0 V
          i = 33.4093e-24 A
        pwr = 0 W

Instance: X239.vISample of MTJT
Model: vsource
Primitive: vsource
          p : V(NM239) = 295.275 mV
          n : V(X239.nVCR1) = 295.275 mV
          v = 0 V
          i = 43.1494e-24 A
        pwr = 0 W

Instance: X240.vISample of MTJT
Model: vsource
Primitive: vsource
          p : V(NM240) = 295.275 mV
          n : V(X240.nVCR1) = 295.275 mV
          v = 0 V
          i = 24.5665e-24 A
        pwr = 0 W

Instance: X241.vISample of MTJT
Model: vsource
Primitive: vsource
          p : V(NM241) = 295.275 mV
          n : V(X241.nVCR1) = 295.275 mV
          v = 0 V
          i = 30.7673e-24 A
        pwr = 0 W

Instance: X242.vISample of MTJT
Model: vsource
Primitive: vsource
          p : V(NM242) = 295.275 mV
          n : V(X242.nVCR1) = 295.275 mV
          v = 0 V
          i = 33.2509e-24 A
        pwr = 0 W

Instance: X243.vISample of MTJT
Model: vsource
Primitive: vsource
          p : V(NM243) = 295.275 mV
          n : V(X243.nVCR1) = 295.275 mV
          v = 0 V
          i = 198.092e-24 A
        pwr = 0 W

Instance: X244.vISample of MTJT
Model: vsource
Primitive: vsource
          p : V(NM244) = 295.275 mV
          n : V(X244.nVCR1) = 295.275 mV
          v = 0 V
          i = -130.621e-24 A
        pwr = -0 W

Instance: X245.vISample of MTJT
Model: vsource
Primitive: vsource
          p : V(NM245) = 295.275 mV
          n : V(X245.nVCR1) = 295.275 mV
          v = 0 V
          i = 24.607e-24 A
        pwr = 0 W

Instance: X246.vISample of MTJT
Model: vsource
Primitive: vsource
          p : V(NM246) = 295.275 mV
          n : V(X246.nVCR1) = 295.275 mV
          v = 0 V
          i = 27.9583e-24 A
        pwr = 0 W

Instance: X247.vISample of MTJT
Model: vsource
Primitive: vsource
          p : V(NM247) = 295.275 mV
          n : V(X247.nVCR1) = 295.275 mV
          v = 0 V
          i = 24.1603e-24 A
        pwr = 0 W

Instance: X248.vISample of MTJT
Model: vsource
Primitive: vsource
          p : V(NM248) = 295.275 mV
          n : V(X248.nVCR1) = 295.275 mV
          v = 0 V
          i = 31.289e-24 A
        pwr = 0 W

Instance: X249.vISample of MTJT
Model: vsource
Primitive: vsource
          p : V(NM249) = 295.275 mV
          n : V(X249.nVCR1) = 295.275 mV
          v = 0 V
          i = 31.7152e-24 A
        pwr = 0 W

Instance: X250.vISample of MTJT
Model: vsource
Primitive: vsource
          p : V(NM250) = 295.275 mV
          n : V(X250.nVCR1) = 295.275 mV
          v = 0 V
          i = -1.2564e-21 A
        pwr = -0 W

Instance: X251.vISample of MTJT
Model: vsource
Primitive: vsource
          p : V(NM251) = 295.275 mV
          n : V(X251.nVCR1) = 295.275 mV
          v = 0 V
          i = 50.5811e-24 A
        pwr = 0 W

Instance: X252.vISample of MTJT
Model: vsource
Primitive: vsource
          p : V(NM252) = 295.275 mV
          n : V(X252.nVCR1) = 295.275 mV
          v = 0 V
          i = 36.9365e-24 A
        pwr = 0 W

Instance: X253.vISample of MTJT
Model: vsource
Primitive: vsource
          p : V(NM253) = 295.275 mV
          n : V(X253.nVCR1) = 295.275 mV
          v = 0 V
          i = 28.1739e-24 A
        pwr = 0 W

Instance: X254.vISample of MTJT
Model: vsource
Primitive: vsource
          p : V(NM254) = 295.275 mV
          n : V(X254.nVCR1) = 295.275 mV
          v = 0 V
          i = 37.7105e-24 A
        pwr = 0 W

Instance: X255.vISample of MTJT
Model: vsource
Primitive: vsource
          p : V(NM255) = 295.275 mV
          n : V(X255.nVCR1) = 295.275 mV
          v = 0 V
          i = 41.9598e-24 A
        pwr = 0 W

Instance: X256.vISample of MTJT
Model: vsource
Primitive: vsource
          p : V(NM256) = 295.275 mV
          n : V(X256.nVCR1) = 295.275 mV
          v = 0 V
          i = 38.0334e-24 A
        pwr = 0 W

Maximum and minimum parameter values for vsource: 
            max v = 1.6 V on Vvdd
            min v = 0 V on Vbl1
            max i = 535.001 nA on Vbl1
            min i = -28.7454 uA on Vvdd
          min |i| = 4.2983e-24 A on Vtest227
          max pwr = 0 W on Vbl1
          min pwr = -45.9927 uW on Vvdd


Total Power Dissipation = 45.9927 uW.


Convergence achieved in 15 iterations.
DC simulation time: CPU = 954.355 ms, elapsed = 999.702 ms.
Total time required for dc analysis `LeakStat': CPU = 954.648 ms, elapsed = 999.998 ms.
Time accumulated: CPU = 29.8694 s, elapsed = 30.1011 s.
Peak resident memory used = 117 Mbytes.


Warning from spectre.
    WARNING (MDL-1101): "Results.mdl" 850: MDL expression for identifier '__dummy' can not be evaluated due to previous errors.
    WARNING (MDL-1101): "Results.mdl" 851: MDL expression for identifier '__dummy' can not be evaluated due to previous errors.


Aggregate audit (3:25:37 PM, Mon Mar 29, 2021):
Time used: CPU = 29.9 s, elapsed = 30.2 s, util. = 99.1%.
Time spent in licensing: elapsed = 27.4 ms.
Peak memory used = 117 Mbytes.
Simulation started at: 3:25:07 PM, Mon Mar 29, 2021, ended at: 3:25:37 PM, Mon Mar 29, 2021, with elapsed time (wall clock): 30.2 s.
spectre completes with 0 errors, 7 warnings, and 35 notices.
