
Spectre (R) Circuit Simulator
Version 16.1.0.673.isr14 64bit -- 30 Mar 2018
Copyright (C) 1989-2018 Cadence Design Systems, Inc. All rights reserved worldwide. Cadence and Spectre are registered trademarks of Cadence Design Systems, Inc. All others are the property of their respective holders.

Includes RSA BSAFE(R) Cryptographic or Security Protocol Software from RSA Security, Inc.

User: brunozimmer   Host: itacolomi.lapsi   HostID: 7F0100   PID: 20746
Memory  available: 17.0937 GB  physical: 33.7036 GB
Linux   : CentOS Linux release 7.9.2009 (Core)
CPU Type: Intel(R) Xeon(R) CPU E3-1220 V2 @ 3.10GHz
        Socket: Processors [Frequency]
        0:       0 [2749.4],  1 [2722.3],  2 [2723.7],  3 [2795.8]
        
System load averages (1min, 5min, 15min) : 0.0 %, 0.5 %, 1.2 %


Simulating `Cell.scs' on itacolomi.lapsi at 4:51:02 PM, Thur Mar 18, 2021 (process id: 20746).
Current working directory: /home/brunozimmer/Documentos/ComparacaoMemorias/1MTJ_HF/512
Command line:
    /tools/cadence/SPECTRE161/tools.lnx86/bin/spectre -64 =mdl  \
        Result.mdl Cell.scs

Loading /tools/cadence/SPECTRE161/tools.lnx86/cmi/lib/64bit/5.0/libinfineon_sh.so ...
Loading /tools/cadence/SPECTRE161/tools.lnx86/cmi/lib/64bit/5.0/libphilips_o_sh.so ...
Loading /tools/cadence/SPECTRE161/tools.lnx86/cmi/lib/64bit/5.0/libphilips_sh.so ...
Loading /tools/cadence/SPECTRE161/tools.lnx86/cmi/lib/64bit/5.0/libsparam_sh.so ...
Loading /tools/cadence/SPECTRE161/tools.lnx86/cmi/lib/64bit/5.0/libstmodels_sh.so ...
Loading /tools/cadence/SPECTRE161/tools.lnx86/spectre/lib/64bit/mdl/libSpectreEH_sh.so ...

Warning from spectre.
    WARNING (MDL-1452): line 1, column 1: syntax error before or at: *
            unrecognised statement.

Reading file:  /home/brunozimmer/Documentos/ComparacaoMemorias/1MTJ_HF/512/Cell.scs
Reading file:  /tools/cadence/SPECTRE161/tools.lnx86/spectre/etc/configs/mapsubckt.cfg
Reading file:  /tools/cadence/SPECTRE161/tools.lnx86/spectre/etc/configs/spectre.cfg
Reading file:  /home/brunozimmer/Documentos/ComparacaoMemorias/1MTJ_HF/512/45nm_LP.pm
Reading file:  /home/brunozimmer/Documentos/ComparacaoMemorias/1MTJ_HF/512/MTJT.spi
Time for NDB Parsing: CPU = 220.322 ms, elapsed = 237.046 ms.
Time accumulated: CPU = 243.317 ms, elapsed = 237.055 ms.
Peak resident memory used = 71.6 Mbytes.

Reading link:  /tools/cadence/SPECTRE161/tools.lnx86/spectre/etc/ahdl/discipline.h
Reading file:  /tools/cadence/SPECTRE161/tools.lnx86/spectre/etc/ahdl/disciplines.vams
Reading link:  /tools/cadence/SPECTRE161/tools.lnx86/spectre/etc/ahdl/constants.h
Reading file:  /tools/cadence/SPECTRE161/tools.lnx86/spectre/etc/ahdl/constants.vams
Existing shared object for module bsource_299dda is up to date.
Installed compiled interface for bsource_299dda.
Existing shared object for module bsource_c88c6a is up to date.
Installed compiled interface for bsource_c88c6a.
Existing shared object for module bsource_42ea24 is up to date.
Installed compiled interface for bsource_42ea24.
Existing shared object for module bsource_7b7e87 is up to date.
Installed compiled interface for bsource_7b7e87.
Existing shared object for module bsource_098211 is up to date.
Installed compiled interface for bsource_098211.
Existing shared object for module bsource_ad0f4a is up to date.
Installed compiled interface for bsource_ad0f4a.
Time for Elaboration: CPU = 113.221 ms, elapsed = 113.313 ms.
Time accumulated: CPU = 356.669 ms, elapsed = 350.513 ms.
Peak resident memory used = 89.4 Mbytes.


Time for EDB Visiting: CPU = 172.683 ms, elapsed = 172.734 ms.
Time accumulated: CPU = 529.543 ms, elapsed = 523.457 ms.
Peak resident memory used = 101 Mbytes.


Notice from spectre during topology check.
    Only one connection to node `Vdd'.


Global user options:
             rawfmt = psfbin
               cmin = 5e-15

Scoped user options:

Circuit inventory:
              nodes 7241
     bsource_7b7e87 512   
     bsource_42ea24 512   
     bsource_299dda 512   
     bsource_098211 512   
     bsource_ad0f4a 512   
     bsource_c88c6a 512   
          capacitor 3144  
           resistor 3592  
               vccs 512   
               vcvs 2048  
            vsource 1097  

Analysis and control statement inventory:
               tran 1     

Output statements:
             .probe 0     
           .measure 0     
               save 0     

Time for parsing: CPU = 67.176 ms, elapsed = 117.609 ms.
Time accumulated: CPU = 596.944 ms, elapsed = 641.318 ms.
Peak resident memory used = 110 Mbytes.

~~~~~~~~~~~~~~~~~~~~~~
Pre-Simulation Summary
~~~~~~~~~~~~~~~~~~~~~~
~~~~~~~~~~~~~~~~~~~~~~

+++++++++++++++
TpRead = (1.5n)
+++++++++++++++

**************************************************************
Transient Analysis `TmpRead-000_TmpRead': time = (0 s -> 5 ns)
**************************************************************
DC simulation time: CPU = 429.983 ms, elapsed = 430.056 ms.

Notice from spectre during transient analysis `TmpRead-000_TmpRead', during task `MDLControl'.
    No outputs were found. Loosening output filter criterion to `allpub'.


Opening the PSF file Cell.raw/TmpRead-000_TmpRead.tran.tran ...
Important parameter values:
    start = 0 s
    outputstart = 0 s
    stop = 5 ns
    step = 5 ps
    maxstep = 100 ps
    ic = all
    useprevic = no
    skipdc = no
    reltol = 1e-03
    abstol(V) = 1 uV
    abstol(I) = 1 pA
    temp = 27 C
    tnom = 27 C
    tempeffects = all
    errpreset = moderate
    method = traponly
    lteratio = 3.5
    relref = sigglobal
    cmin = 5 fF
    gmin = 1 pS


Output and IC/nodeset summary:
                 save   1097    (current)
                 save   7241    (voltage)

.........9......

Notice from spectre at time = 815.177 ps during transient analysis `TmpRead-000_TmpRead', during task `MDLControl'.
    Found trapezoidal ringing on node X224.elim2:p.

.........9.......

Notice from spectre at time = 850.564 ps during transient analysis `TmpRead-000_TmpRead', during task `MDLControl'.
    Found trapezoidal ringing on node X224.eVTMR:p.
Notice from spectre at time = 858.574 ps during transient analysis `TmpRead-000_TmpRead', during task `MDLControl'.
    Found trapezoidal ringing on node X224.eBiStable:p.
Notice from spectre at time = 867.876 ps during transient analysis `TmpRead-000_TmpRead', during task `MDLControl'.
    Found trapezoidal ringing on node X224.eVTMR:p.
Notice from spectre at time = 878.368 ps during transient analysis `TmpRead-000_TmpRead', during task `MDLControl'.
    Found trapezoidal ringing on node X224.eBiStable:p.
        Further occurrences of this notice will be suppressed.

.........9.........8.........7.........6.........5.........4.........3.........2.........1.........0
Number of accepted tran steps =             566

Notice from spectre during transient analysis `TmpRead-000_TmpRead', during task `MDLControl'.
    Trapezoidal ringing is detected during tran analysis.
        Please use method=trap for better results and performance.


Maximum value achieved for any signal of each quantity: 
V: V(X512.nBiStable) = 10 V
I: I(X224.eMux3:bs_p1_bs_p2_flow) = 77.52 A
If your circuit contains signals of the same quantity that are vastly different in size (such as high voltage circuitry combined with low voltage control circuitry), you should consider specifying global option `bin_relref=yes'.

~~~~~~~~~~~~~~~~~~~~~~~~~~~~~~~~~
Post-Transient Simulation Summary
~~~~~~~~~~~~~~~~~~~~~~~~~~~~~~~~~
   -   Parasitics slow down simulation. To speed up, consider
          add +postlayout on command line
   -   To further speed up simulation, consider
          add ++aps on command line
~~~~~~~~~~~~~~~~~~~~~~~~~~~~~~~~~


During simulation, the CPU load for active processors is :
        Spectre  0 (5.7 %)       1 (98.3 %)      2 (3.2 %)       3 (2.4 %)
        Other   
Initial condition solution time: CPU = 430.194 ms, elapsed = 430.277 ms.
Intrinsic tran analysis time:    CPU = 6.92709 s, elapsed = 6.95642 s.
Total time required for tran analysis `TmpRead-000_TmpRead': CPU = 7.40379 s, elapsed = 7.43334 s.
Time accumulated: CPU = 8.15127 s, elapsed = 8.27246 s.
Peak resident memory used = 135 Mbytes.


Notice from spectre during task `MDLControl'.
    129 notices suppressed.


Value of Exported Variables in this iteration of the Search loop ( iteration = 1 ) :
CurBL=0.000842877
TpRd=2e-10

++++++++++++++++
TpRead = (1.71n)
++++++++++++++++

**************************************************************
Transient Analysis `TmpRead-000_TmpRead': time = (0 s -> 5 ns)
**************************************************************

Notice from spectre during IC analysis, during transient analysis `TmpRead-000_TmpRead', during task `MDLControl'.
    Bad pivoting is found during DC analysis. Option dc_pivot_check=yes is recommended for possible improvement of convergence.

DC simulation time: CPU = 572.786 ms, elapsed = 572.854 ms.

Notice from spectre during transient analysis `TmpRead-000_TmpRead', during task `MDLControl'.
    No outputs were found. Loosening output filter criterion to `allpub'.


Opening the PSF file Cell.raw/TmpRead-000_TmpRead.tran.tran ...
Important parameter values:
    start = 0 s
    outputstart = 0 s
    stop = 5 ns
    step = 5 ps
    maxstep = 100 ps
    ic = all
    useprevic = no
    skipdc = no
    reltol = 1e-03
    abstol(V) = 1 uV
    abstol(I) = 1 pA
    temp = 27 C
    tnom = 27 C
    tempeffects = all
    errpreset = moderate
    method = traponly
    lteratio = 3.5
    relref = sigglobal
    cmin = 5 fF
    gmin = 1 pS


Output and IC/nodeset summary:
                 save   1097    (current)
                 save   7241    (voltage)

Zero diagonal found in Jacobian at `X491.eISensBin1:bs_p1_bs_p2_flow' and `X491.vISample:p'.
Zero diagonal found in Jacobian at `X132.eISensBin2:bs_p1_bs_p2_flow' and `X132.vISample:p'.
.........9......

Notice from spectre at time = 815.177 ps during transient analysis `TmpRead-000_TmpRead', during task `MDLControl'.
    Found trapezoidal ringing on node X224.elim2:p.

.........9.......

Notice from spectre at time = 850.564 ps during transient analysis `TmpRead-000_TmpRead', during task `MDLControl'.
    Found trapezoidal ringing on node X224.eVTMR:p.
Notice from spectre at time = 858.574 ps during transient analysis `TmpRead-000_TmpRead', during task `MDLControl'.
    Found trapezoidal ringing on node X224.eBiStable:p.
Notice from spectre at time = 867.876 ps during transient analysis `TmpRead-000_TmpRead', during task `MDLControl'.
    Found trapezoidal ringing on node X224.eVTMR:p.
Notice from spectre at time = 878.368 ps during transient analysis `TmpRead-000_TmpRead', during task `MDLControl'.
    Found trapezoidal ringing on node X224.eBiStable:p.
        Further occurrences of this notice will be suppressed.

.........9.........8.........7.........6.........5.........4.........3.........2.........1.........0
Number of accepted tran steps =             666

Notice from spectre during transient analysis `TmpRead-000_TmpRead', during task `MDLControl'.
    Trapezoidal ringing is detected during tran analysis.
        Please use method=trap for better results and performance.


Maximum value achieved for any signal of each quantity: 
V: V(X512.nBiStable) = 10 V
I: I(X224.eMux3:bs_p1_bs_p2_flow) = 310.1 A
If your circuit contains signals of the same quantity that are vastly different in size (such as high voltage circuitry combined with low voltage control circuitry), you should consider specifying global option `bin_relref=yes'.

~~~~~~~~~~~~~~~~~~~~~~~~~~~~~~~~~
Post-Transient Simulation Summary
~~~~~~~~~~~~~~~~~~~~~~~~~~~~~~~~~
   -   Parasitics slow down simulation. To speed up, consider
          add +postlayout on command line
   -   To further speed up simulation, consider
          add ++aps on command line
~~~~~~~~~~~~~~~~~~~~~~~~~~~~~~~~~


During simulation, the CPU load for active processors is :
        Spectre  0 (6.3 %)       1 (53.3 %)      2 (50.3 %)      3 (4.1 %)
        Other   
Initial condition solution time: CPU = 572.934 ms, elapsed = 573.018 ms.
Intrinsic tran analysis time:    CPU = 8.5247 s, elapsed = 8.55212 s.
Total time required for tran analysis `TmpRead-000_TmpRead': CPU = 9.1396 s, elapsed = 9.16723 s.
Time accumulated: CPU = 17.4205 s, elapsed = 17.5694 s.
Peak resident memory used = 137 Mbytes.


Notice from spectre during task `MDLControl'.
    223 notices suppressed.


Value of Exported Variables in this iteration of the Search loop ( iteration = 2 ) :
CurBL=1.95115e-13
TpRd=-1e-11

++++++++++++++++++
TpRead = 1.605e-09
++++++++++++++++++

**************************************************************
Transient Analysis `TmpRead-000_TmpRead': time = (0 s -> 5 ns)
**************************************************************

Notice from spectre during IC analysis, during transient analysis `TmpRead-000_TmpRead', during task `MDLControl'.
    Bad pivoting is found during DC analysis. Option dc_pivot_check=yes is recommended for possible improvement of convergence.

DC simulation time: CPU = 562.462 ms, elapsed = 562.55 ms.

Notice from spectre during transient analysis `TmpRead-000_TmpRead', during task `MDLControl'.
    No outputs were found. Loosening output filter criterion to `allpub'.


Opening the PSF file Cell.raw/TmpRead-000_TmpRead.tran.tran ...
Important parameter values:
    start = 0 s
    outputstart = 0 s
    stop = 5 ns
    step = 5 ps
    maxstep = 100 ps
    ic = all
    useprevic = no
    skipdc = no
    reltol = 1e-03
    abstol(V) = 1 uV
    abstol(I) = 1 pA
    temp = 27 C
    tnom = 27 C
    tempeffects = all
    errpreset = moderate
    method = traponly
    lteratio = 3.5
    relref = sigglobal
    cmin = 5 fF
    gmin = 1 pS


Output and IC/nodeset summary:
                 save   1097    (current)
                 save   7241    (voltage)

Zero diagonal found in Jacobian at `X288.eISensBin1:bs_p1_bs_p2_flow' and `X288.vISample:p'.
Zero diagonal found in Jacobian at `X372.eISensBin2:bs_p1_bs_p2_flow' and `X372.vISample:p'.
.........9......

Notice from spectre at time = 815.177 ps during transient analysis `TmpRead-000_TmpRead', during task `MDLControl'.
    Found trapezoidal ringing on node X224.elim2:p.

.........9.......

Notice from spectre at time = 850.564 ps during transient analysis `TmpRead-000_TmpRead', during task `MDLControl'.
    Found trapezoidal ringing on node X224.eVTMR:p.
Notice from spectre at time = 858.574 ps during transient analysis `TmpRead-000_TmpRead', during task `MDLControl'.
    Found trapezoidal ringing on node X224.eBiStable:p.
Notice from spectre at time = 867.876 ps during transient analysis `TmpRead-000_TmpRead', during task `MDLControl'.
    Found trapezoidal ringing on node X224.eVTMR:p.
Notice from spectre at time = 878.368 ps during transient analysis `TmpRead-000_TmpRead', during task `MDLControl'.
    Found trapezoidal ringing on node X224.eBiStable:p.
        Further occurrences of this notice will be suppressed.

.........9.........8.........7.........6.........5.........4.........3.........2.........1.........0
Number of accepted tran steps =             568

Notice from spectre during transient analysis `TmpRead-000_TmpRead', during task `MDLControl'.
    Trapezoidal ringing is detected during tran analysis.
        Please use method=trap for better results and performance.


Maximum value achieved for any signal of each quantity: 
V: V(X512.nBiStable) = 10 V
I: I(X224.eMux3:bs_p1_bs_p2_flow) = 310.1 A
If your circuit contains signals of the same quantity that are vastly different in size (such as high voltage circuitry combined with low voltage control circuitry), you should consider specifying global option `bin_relref=yes'.

~~~~~~~~~~~~~~~~~~~~~~~~~~~~~~~~~
Post-Transient Simulation Summary
~~~~~~~~~~~~~~~~~~~~~~~~~~~~~~~~~
   -   Parasitics slow down simulation. To speed up, consider
          add +postlayout on command line
   -   To further speed up simulation, consider
          add ++aps on command line
~~~~~~~~~~~~~~~~~~~~~~~~~~~~~~~~~


During simulation, the CPU load for active processors is :
        Spectre  0 (5.3 %)       1 (37.7 %)      2 (65.6 %)      3 (3.4 %)
        Other   
Initial condition solution time: CPU = 562.594 ms, elapsed = 562.693 ms.
Intrinsic tran analysis time:    CPU = 7.0657 s, elapsed = 7.09641 s.
Total time required for tran analysis `TmpRead-000_TmpRead': CPU = 7.67247 s, elapsed = 7.7034 s.
Time accumulated: CPU = 25.2123 s, elapsed = 25.3921 s.
Peak resident memory used = 137 Mbytes.


Notice from spectre during task `MDLControl'.
    129 notices suppressed.


Value of Exported Variables in this iteration of the Search loop ( iteration = 3 ) :
CurBL=0.000842817
TpRd=9.5e-11

+++++++++++++++++++
TpRead = 1.6575e-09
+++++++++++++++++++

**************************************************************
Transient Analysis `TmpRead-000_TmpRead': time = (0 s -> 5 ns)
**************************************************************
DC simulation time: CPU = 563.038 ms, elapsed = 563.099 ms.

Notice from spectre during transient analysis `TmpRead-000_TmpRead', during task `MDLControl'.
    No outputs were found. Loosening output filter criterion to `allpub'.


Opening the PSF file Cell.raw/TmpRead-000_TmpRead.tran.tran ...
Important parameter values:
    start = 0 s
    outputstart = 0 s
    stop = 5 ns
    step = 5 ps
    maxstep = 100 ps
    ic = all
    useprevic = no
    skipdc = no
    reltol = 1e-03
    abstol(V) = 1 uV
    abstol(I) = 1 pA
    temp = 27 C
    tnom = 27 C
    tempeffects = all
    errpreset = moderate
    method = traponly
    lteratio = 3.5
    relref = sigglobal
    cmin = 5 fF
    gmin = 1 pS


Output and IC/nodeset summary:
                 save   1097    (current)
                 save   7241    (voltage)

Zero diagonal found in Jacobian at `X386.eISensBin1:bs_p1_bs_p2_flow' and `X386.vISample:p'.
Zero diagonal found in Jacobian at `X148.eISensBin2:bs_p1_bs_p2_flow' and `X148.vISample:p'.
.........9......

Notice from spectre at time = 815.177 ps during transient analysis `TmpRead-000_TmpRead', during task `MDLControl'.
    Found trapezoidal ringing on node X224.elim2:p.

.........9.......

Notice from spectre at time = 850.564 ps during transient analysis `TmpRead-000_TmpRead', during task `MDLControl'.
    Found trapezoidal ringing on node X224.eVTMR:p.
Notice from spectre at time = 858.574 ps during transient analysis `TmpRead-000_TmpRead', during task `MDLControl'.
    Found trapezoidal ringing on node X224.eBiStable:p.
Notice from spectre at time = 867.876 ps during transient analysis `TmpRead-000_TmpRead', during task `MDLControl'.
    Found trapezoidal ringing on node X224.eVTMR:p.
Notice from spectre at time = 878.368 ps during transient analysis `TmpRead-000_TmpRead', during task `MDLControl'.
    Found trapezoidal ringing on node X224.eBiStable:p.
        Further occurrences of this notice will be suppressed.

.........9.........8.........7...

Notice from spectre at time = 1.65854 ns during transient analysis `TmpRead-000_TmpRead', during task `MDLControl'.
    Newton iteration fails to converge at time = 1.65854 ns step = 50.0444e-24 s.
        Disaster recovery algorithm is enabled to search for a converged solution.

.........9.........8.........7.........6.........5.........4.........3.........2.........1.........0
Number of accepted tran steps =             521

Notice from spectre during transient analysis `TmpRead-000_TmpRead', during task `MDLControl'.
    Trapezoidal ringing is detected during tran analysis.
        Please use method=trap for better results and performance.


Maximum value achieved for any signal of each quantity: 
V: V(X512.nBiStable) = 10 V
I: I(X224.eMux3:bs_p1_bs_p2_flow) = 310.1 A
If your circuit contains signals of the same quantity that are vastly different in size (such as high voltage circuitry combined with low voltage control circuitry), you should consider specifying global option `bin_relref=yes'.

~~~~~~~~~~~~~~~~~~~~~~~~~~~~~~~~~
Post-Transient Simulation Summary
~~~~~~~~~~~~~~~~~~~~~~~~~~~~~~~~~
   -   Parasitics slow down simulation. To speed up, consider
          add +postlayout on command line
   -   To further speed up simulation, consider
          add ++aps on command line
~~~~~~~~~~~~~~~~~~~~~~~~~~~~~~~~~


During simulation, the CPU load for active processors is :
        Spectre  0 (5.0 %)       1 (33.2 %)      2 (73.0 %)      3 (3.8 %)
        Other   
Initial condition solution time: CPU = 563.197 ms, elapsed = 563.269 ms.
Intrinsic tran analysis time:    CPU = 6.29657 s, elapsed = 6.32825 s.
Total time required for tran analysis `TmpRead-000_TmpRead': CPU = 6.90353 s, elapsed = 6.93542 s.
Time accumulated: CPU = 32.2337 s, elapsed = 32.4455 s.
Peak resident memory used = 137 Mbytes.


Notice from spectre during task `MDLControl'.
    121 notices suppressed.


Value of Exported Variables in this iteration of the Search loop ( iteration = 4 ) :
CurBL=0.000826459
TpRd=4.25e-11

++++++++++++++++++++
TpRead = 1.63125e-09
++++++++++++++++++++

**************************************************************
Transient Analysis `TmpRead-000_TmpRead': time = (0 s -> 5 ns)
**************************************************************
DC simulation time: CPU = 618.778 ms, elapsed = 618.815 ms.

Notice from spectre during transient analysis `TmpRead-000_TmpRead', during task `MDLControl'.
    No outputs were found. Loosening output filter criterion to `allpub'.


Opening the PSF file Cell.raw/TmpRead-000_TmpRead.tran.tran ...
Important parameter values:
    start = 0 s
    outputstart = 0 s
    stop = 5 ns
    step = 5 ps
    maxstep = 100 ps
    ic = all
    useprevic = no
    skipdc = no
    reltol = 1e-03
    abstol(V) = 1 uV
    abstol(I) = 1 pA
    temp = 27 C
    tnom = 27 C
    tempeffects = all
    errpreset = moderate
    method = traponly
    lteratio = 3.5
    relref = sigglobal
    cmin = 5 fF
    gmin = 1 pS


Output and IC/nodeset summary:
                 save   1097    (current)
                 save   7241    (voltage)

Zero diagonal found in Jacobian at `X435.elim1:p' and `X435.n50'.
.........9......

Notice from spectre at time = 815.177 ps during transient analysis `TmpRead-000_TmpRead', during task `MDLControl'.
    Found trapezoidal ringing on node X224.elim2:p.

.........9.......

Notice from spectre at time = 850.564 ps during transient analysis `TmpRead-000_TmpRead', during task `MDLControl'.
    Found trapezoidal ringing on node X224.eVTMR:p.
Notice from spectre at time = 858.574 ps during transient analysis `TmpRead-000_TmpRead', during task `MDLControl'.
    Found trapezoidal ringing on node X224.eBiStable:p.
Notice from spectre at time = 867.876 ps during transient analysis `TmpRead-000_TmpRead', during task `MDLControl'.
    Found trapezoidal ringing on node X224.eVTMR:p.
Notice from spectre at time = 878.368 ps during transient analysis `TmpRead-000_TmpRead', during task `MDLControl'.
    Found trapezoidal ringing on node X224.eBiStable:p.
        Further occurrences of this notice will be suppressed.

.........9.........8.........7.........6.........5.........4.........3.........2.........1.........0
Number of accepted tran steps =             627

Notice from spectre during transient analysis `TmpRead-000_TmpRead', during task `MDLControl'.
    Trapezoidal ringing is detected during tran analysis.
        Please use method=trap for better results and performance.


Maximum value achieved for any signal of each quantity: 
V: V(X512.nBiStable) = 10 V
I: I(X224.eMux3:bs_p1_bs_p2_flow) = 77.52 A
If your circuit contains signals of the same quantity that are vastly different in size (such as high voltage circuitry combined with low voltage control circuitry), you should consider specifying global option `bin_relref=yes'.

~~~~~~~~~~~~~~~~~~~~~~~~~~~~~~~~~
Post-Transient Simulation Summary
~~~~~~~~~~~~~~~~~~~~~~~~~~~~~~~~~
   -   Parasitics slow down simulation. To speed up, consider
          add +postlayout on command line
   -   To further speed up simulation, consider
          add ++aps on command line
~~~~~~~~~~~~~~~~~~~~~~~~~~~~~~~~~


During simulation, the CPU load for active processors is :
        Spectre  0 (4.2 %)       1 (26.6 %)      2 (78.7 %)      3 (3.3 %)
        Other   
Initial condition solution time: CPU = 618.939 ms, elapsed = 618.985 ms.
Intrinsic tran analysis time:    CPU = 7.95955 s, elapsed = 7.98422 s.
Total time required for tran analysis `TmpRead-000_TmpRead': CPU = 8.62092 s, elapsed = 8.64575 s.
Time accumulated: CPU = 40.9732 s, elapsed = 41.2099 s.
Peak resident memory used = 137 Mbytes.


Notice from spectre during task `MDLControl'.
    178 notices suppressed.


Value of Exported Variables in this iteration of the Search loop ( iteration = 5 ) :
CurBL=0.000841503
TpRd=6.875e-11

++++++++++++++++++++
TpRead = 1.64438e-09
++++++++++++++++++++

**************************************************************
Transient Analysis `TmpRead-000_TmpRead': time = (0 s -> 5 ns)
**************************************************************
DC simulation time: CPU = 593.962 ms, elapsed = 593.991 ms.

Notice from spectre during transient analysis `TmpRead-000_TmpRead', during task `MDLControl'.
    No outputs were found. Loosening output filter criterion to `allpub'.


Opening the PSF file Cell.raw/TmpRead-000_TmpRead.tran.tran ...
Important parameter values:
    start = 0 s
    outputstart = 0 s
    stop = 5 ns
    step = 5 ps
    maxstep = 100 ps
    ic = all
    useprevic = no
    skipdc = no
    reltol = 1e-03
    abstol(V) = 1 uV
    abstol(I) = 1 pA
    temp = 27 C
    tnom = 27 C
    tempeffects = all
    errpreset = moderate
    method = traponly
    lteratio = 3.5
    relref = sigglobal
    cmin = 5 fF
    gmin = 1 pS


Output and IC/nodeset summary:
                 save   1097    (current)
                 save   7241    (voltage)

Zero diagonal found in Jacobian at `X115.eISensBin1:bs_p1_bs_p2_flow' and `X115.vISample:p'.
Zero diagonal found in Jacobian at `X352.eISensBin2:bs_p1_bs_p2_flow' and `X352.vISample:p'.
.........9......

Notice from spectre at time = 815.177 ps during transient analysis `TmpRead-000_TmpRead', during task `MDLControl'.
    Found trapezoidal ringing on node X224.elim2:p.

.........9.......

Notice from spectre at time = 850.564 ps during transient analysis `TmpRead-000_TmpRead', during task `MDLControl'.
    Found trapezoidal ringing on node X224.eVTMR:p.
Notice from spectre at time = 858.574 ps during transient analysis `TmpRead-000_TmpRead', during task `MDLControl'.
    Found trapezoidal ringing on node X224.eBiStable:p.
Notice from spectre at time = 867.876 ps during transient analysis `TmpRead-000_TmpRead', during task `MDLControl'.
    Found trapezoidal ringing on node X224.eVTMR:p.
Notice from spectre at time = 878.368 ps during transient analysis `TmpRead-000_TmpRead', during task `MDLControl'.
    Found trapezoidal ringing on node X224.eBiStable:p.
        Further occurrences of this notice will be suppressed.

.........9.........8.........7.........6.........5.........4.........3.........2.........1.........0
Number of accepted tran steps =             576

Notice from spectre during transient analysis `TmpRead-000_TmpRead', during task `MDLControl'.
    Trapezoidal ringing is detected during tran analysis.
        Please use method=trap for better results and performance.


Maximum value achieved for any signal of each quantity: 
V: V(X512.nBiStable) = 10 V
I: I(X224.eMux3:bs_p1_bs_p2_flow) = 310.1 A
If your circuit contains signals of the same quantity that are vastly different in size (such as high voltage circuitry combined with low voltage control circuitry), you should consider specifying global option `bin_relref=yes'.

~~~~~~~~~~~~~~~~~~~~~~~~~~~~~~~~~
Post-Transient Simulation Summary
~~~~~~~~~~~~~~~~~~~~~~~~~~~~~~~~~
   -   Parasitics slow down simulation. To speed up, consider
          add +postlayout on command line
   -   To further speed up simulation, consider
          add ++aps on command line
~~~~~~~~~~~~~~~~~~~~~~~~~~~~~~~~~


During simulation, the CPU load for active processors is :
        Spectre  0 (3.7 %)       1 (22.6 %)      2 (82.1 %)      3 (3.1 %)
        Other   
Initial condition solution time: CPU = 594.14 ms, elapsed = 594.18 ms.
Intrinsic tran analysis time:    CPU = 7.11978 s, elapsed = 7.14541 s.
Total time required for tran analysis `TmpRead-000_TmpRead': CPU = 7.75692 s, elapsed = 7.78271 s.
Time accumulated: CPU = 48.846 s, elapsed = 49.1085 s.
Peak resident memory used = 137 Mbytes.


Notice from spectre during task `MDLControl'.
    129 notices suppressed.


Value of Exported Variables in this iteration of the Search loop ( iteration = 6 ) :
CurBL=0.000838071
TpRd=5.5625e-11

++++++++++++++++++++
TpRead = 1.65094e-09
++++++++++++++++++++

**************************************************************
Transient Analysis `TmpRead-000_TmpRead': time = (0 s -> 5 ns)
**************************************************************
DC simulation time: CPU = 621.184 ms, elapsed = 621.214 ms.

Notice from spectre during transient analysis `TmpRead-000_TmpRead', during task `MDLControl'.
    No outputs were found. Loosening output filter criterion to `allpub'.


Opening the PSF file Cell.raw/TmpRead-000_TmpRead.tran.tran ...
Important parameter values:
    start = 0 s
    outputstart = 0 s
    stop = 5 ns
    step = 5 ps
    maxstep = 100 ps
    ic = all
    useprevic = no
    skipdc = no
    reltol = 1e-03
    abstol(V) = 1 uV
    abstol(I) = 1 pA
    temp = 27 C
    tnom = 27 C
    tempeffects = all
    errpreset = moderate
    method = traponly
    lteratio = 3.5
    relref = sigglobal
    cmin = 5 fF
    gmin = 1 pS


Output and IC/nodeset summary:
                 save   1097    (current)
                 save   7241    (voltage)

Zero diagonal found in Jacobian at `X27.eISensBin1:bs_p1_bs_p2_flow' and `X27.vISample:p'.
Zero diagonal found in Jacobian at `X90.eISensBin2:bs_p1_bs_p2_flow' and `X90.vISample:p'.
.........9......

Notice from spectre at time = 815.177 ps during transient analysis `TmpRead-000_TmpRead', during task `MDLControl'.
    Found trapezoidal ringing on node X224.elim2:p.

.........9.......

Notice from spectre at time = 850.564 ps during transient analysis `TmpRead-000_TmpRead', during task `MDLControl'.
    Found trapezoidal ringing on node X224.eVTMR:p.
Notice from spectre at time = 858.574 ps during transient analysis `TmpRead-000_TmpRead', during task `MDLControl'.
    Found trapezoidal ringing on node X224.eBiStable:p.
Notice from spectre at time = 867.876 ps during transient analysis `TmpRead-000_TmpRead', during task `MDLControl'.
    Found trapezoidal ringing on node X224.eVTMR:p.
Notice from spectre at time = 878.368 ps during transient analysis `TmpRead-000_TmpRead', during task `MDLControl'.
    Found trapezoidal ringing on node X224.eBiStable:p.
        Further occurrences of this notice will be suppressed.

.........9.........8.........7.........6.........5.........4.........3.........2.........1.........0
Number of accepted tran steps =             606

Notice from spectre during transient analysis `TmpRead-000_TmpRead', during task `MDLControl'.
    Trapezoidal ringing is detected during tran analysis.
        Please use method=trap for better results and performance.


Maximum value achieved for any signal of each quantity: 
V: V(X512.nBiStable) = 10 V
I: I(X224.eMux3:bs_p1_bs_p2_flow) = 77.52 A
If your circuit contains signals of the same quantity that are vastly different in size (such as high voltage circuitry combined with low voltage control circuitry), you should consider specifying global option `bin_relref=yes'.

~~~~~~~~~~~~~~~~~~~~~~~~~~~~~~~~~
Post-Transient Simulation Summary
~~~~~~~~~~~~~~~~~~~~~~~~~~~~~~~~~
   -   Parasitics slow down simulation. To speed up, consider
          add +postlayout on command line
   -   To further speed up simulation, consider
          add ++aps on command line
~~~~~~~~~~~~~~~~~~~~~~~~~~~~~~~~~


During simulation, the CPU load for active processors is :
        Spectre  0 (3.6 %)       1 (19.6 %)      2 (84.6 %)      3 (2.9 %)
        Other   
Initial condition solution time: CPU = 621.371 ms, elapsed = 621.412 ms.
Intrinsic tran analysis time:    CPU = 7.37944 s, elapsed = 7.41232 s.
Total time required for tran analysis `TmpRead-000_TmpRead': CPU = 8.04243 s, elapsed = 8.07547 s.
Time accumulated: CPU = 57.0057 s, elapsed = 57.3013 s.
Peak resident memory used = 137 Mbytes.


Notice from spectre during task `MDLControl'.
    179 notices suppressed.


Value of Exported Variables in this iteration of the Search loop ( iteration = 7 ) :
CurBL=0.000834761
TpRd=4.90625e-11

++++++++++++++++++++
TpRead = 1.65422e-09
++++++++++++++++++++

**************************************************************
Transient Analysis `TmpRead-000_TmpRead': time = (0 s -> 5 ns)
**************************************************************
DC simulation time: CPU = 605.882 ms, elapsed = 605.911 ms.

Notice from spectre during transient analysis `TmpRead-000_TmpRead', during task `MDLControl'.
    No outputs were found. Loosening output filter criterion to `allpub'.


Opening the PSF file Cell.raw/TmpRead-000_TmpRead.tran.tran ...
Important parameter values:
    start = 0 s
    outputstart = 0 s
    stop = 5 ns
    step = 5 ps
    maxstep = 100 ps
    ic = all
    useprevic = no
    skipdc = no
    reltol = 1e-03
    abstol(V) = 1 uV
    abstol(I) = 1 pA
    temp = 27 C
    tnom = 27 C
    tempeffects = all
    errpreset = moderate
    method = traponly
    lteratio = 3.5
    relref = sigglobal
    cmin = 5 fF
    gmin = 1 pS


Output and IC/nodeset summary:
                 save   1097    (current)
                 save   7241    (voltage)

Zero diagonal found in Jacobian at `X48.elim1:p' and `X48.n50'.
Zero diagonal found in Jacobian at `X437.eISensBin2:bs_p1_bs_p2_flow' and `X437.vISample:p'.
.........9......

Notice from spectre at time = 815.177 ps during transient analysis `TmpRead-000_TmpRead', during task `MDLControl'.
    Found trapezoidal ringing on node X224.elim2:p.

.........9.......

Notice from spectre at time = 850.564 ps during transient analysis `TmpRead-000_TmpRead', during task `MDLControl'.
    Found trapezoidal ringing on node X224.eVTMR:p.
Notice from spectre at time = 858.574 ps during transient analysis `TmpRead-000_TmpRead', during task `MDLControl'.
    Found trapezoidal ringing on node X224.eBiStable:p.
Notice from spectre at time = 867.876 ps during transient analysis `TmpRead-000_TmpRead', during task `MDLControl'.
    Found trapezoidal ringing on node X224.eVTMR:p.
Notice from spectre at time = 878.368 ps during transient analysis `TmpRead-000_TmpRead', during task `MDLControl'.
    Found trapezoidal ringing on node X224.eBiStable:p.
        Further occurrences of this notice will be suppressed.

.........9.........8.........7.........6.........5.........4.........3.........2.........1.........0
Number of accepted tran steps =             512

Notice from spectre during transient analysis `TmpRead-000_TmpRead', during task `MDLControl'.
    Trapezoidal ringing is detected during tran analysis.
        Please use method=trap for better results and performance.


Maximum value achieved for any signal of each quantity: 
V: V(X512.nBiStable) = 10 V
I: I(X224.eMux3:bs_p1_bs_p2_flow) = 77.52 A
If your circuit contains signals of the same quantity that are vastly different in size (such as high voltage circuitry combined with low voltage control circuitry), you should consider specifying global option `bin_relref=yes'.

~~~~~~~~~~~~~~~~~~~~~~~~~~~~~~~~~
Post-Transient Simulation Summary
~~~~~~~~~~~~~~~~~~~~~~~~~~~~~~~~~
   -   Parasitics slow down simulation. To speed up, consider
          add +postlayout on command line
   -   To further speed up simulation, consider
          add ++aps on command line
~~~~~~~~~~~~~~~~~~~~~~~~~~~~~~~~~


During simulation, the CPU load for active processors is :
        Spectre  0 (3.4 %)       1 (17.6 %)      2 (86.3 %)      3 (2.8 %)
        Other   
Initial condition solution time: CPU = 606.07 ms, elapsed = 606.109 ms.
Intrinsic tran analysis time:    CPU = 6.51806 s, elapsed = 6.54578 s.
Total time required for tran analysis `TmpRead-000_TmpRead': CPU = 7.16767 s, elapsed = 7.19555 s.
Time accumulated: CPU = 64.2891 s (1m  4.3s), elapsed = 64.6127 s (1m  4.6s).
Peak resident memory used = 139 Mbytes.


Notice from spectre during task `MDLControl'.
    48 notices suppressed.


Value of Exported Variables in this iteration of the Search loop ( iteration = 8 ) :
CurBL=0.000831098
TpRd=4.57813e-11

++++++++++++++++++++
TpRead = 1.65586e-09
++++++++++++++++++++

**************************************************************
Transient Analysis `TmpRead-000_TmpRead': time = (0 s -> 5 ns)
**************************************************************
DC simulation time: CPU = 616.548 ms, elapsed = 616.613 ms.

Notice from spectre during transient analysis `TmpRead-000_TmpRead', during task `MDLControl'.
    No outputs were found. Loosening output filter criterion to `allpub'.


Opening the PSF file Cell.raw/TmpRead-000_TmpRead.tran.tran ...
Important parameter values:
    start = 0 s
    outputstart = 0 s
    stop = 5 ns
    step = 5 ps
    maxstep = 100 ps
    ic = all
    useprevic = no
    skipdc = no
    reltol = 1e-03
    abstol(V) = 1 uV
    abstol(I) = 1 pA
    temp = 27 C
    tnom = 27 C
    tempeffects = all
    errpreset = moderate
    method = traponly
    lteratio = 3.5
    relref = sigglobal
    cmin = 5 fF
    gmin = 1 pS


Output and IC/nodeset summary:
                 save   1097    (current)
                 save   7241    (voltage)

Zero diagonal found in Jacobian at `X435.elim1:p' and `X435.n50'.
Zero diagonal found in Jacobian at `X108.eISensBin2:bs_p1_bs_p2_flow' and `X108.vISample:p'.
.........9......

Notice from spectre at time = 815.177 ps during transient analysis `TmpRead-000_TmpRead', during task `MDLControl'.
    Found trapezoidal ringing on node X224.elim2:p.

.........9.......

Notice from spectre at time = 850.564 ps during transient analysis `TmpRead-000_TmpRead', during task `MDLControl'.
    Found trapezoidal ringing on node X224.eVTMR:p.
Notice from spectre at time = 858.574 ps during transient analysis `TmpRead-000_TmpRead', during task `MDLControl'.
    Found trapezoidal ringing on node X224.eBiStable:p.
Notice from spectre at time = 867.876 ps during transient analysis `TmpRead-000_TmpRead', during task `MDLControl'.
    Found trapezoidal ringing on node X224.eVTMR:p.
Notice from spectre at time = 878.368 ps during transient analysis `TmpRead-000_TmpRead', during task `MDLControl'.
    Found trapezoidal ringing on node X224.eBiStable:p.
        Further occurrences of this notice will be suppressed.

.........9.........8.........7.........6.........5.........4.........3.........2.........1.........0
Number of accepted tran steps =             723

Notice from spectre during transient analysis `TmpRead-000_TmpRead', during task `MDLControl'.
    Trapezoidal ringing is detected during tran analysis.
        Please use method=trap for better results and performance.


Maximum value achieved for any signal of each quantity: 
V: V(X512.nBiStable) = 10 V
I: I(X224.eMux3:bs_p1_bs_p2_flow) = 77.52 A
If your circuit contains signals of the same quantity that are vastly different in size (such as high voltage circuitry combined with low voltage control circuitry), you should consider specifying global option `bin_relref=yes'.

~~~~~~~~~~~~~~~~~~~~~~~~~~~~~~~~~
Post-Transient Simulation Summary
~~~~~~~~~~~~~~~~~~~~~~~~~~~~~~~~~
   -   Parasitics slow down simulation. To speed up, consider
          add +postlayout on command line
   -   To further speed up simulation, consider
          add ++aps on command line
~~~~~~~~~~~~~~~~~~~~~~~~~~~~~~~~~


During simulation, the CPU load for active processors is :
        Spectre  0 (3.4 %)       1 (15.4 %)      2 (88.2 %)      3 (2.7 %)
        Other   
Initial condition solution time: CPU = 616.739 ms, elapsed = 616.815 ms.
Intrinsic tran analysis time:    CPU = 10.043 s, elapsed = 10.0734 s.
Total time required for tran analysis `TmpRead-000_TmpRead': CPU = 10.7021 s, elapsed = 10.7328 s.
Time accumulated: CPU = 75.1092 s (1m  15.1s), elapsed = 75.4635 s (1m  15.5s).
Peak resident memory used = 139 Mbytes.


Notice from spectre during task `MDLControl'.
    203 notices suppressed.


Value of Exported Variables in this iteration of the Search loop ( iteration = 9 ) :
CurBL=0.000828777
TpRd=4.41406e-11

++++++++++++++++++++
TpRead = 1.65504e-09
++++++++++++++++++++

**************************************************************
Transient Analysis `TmpRead-000_TmpRead': time = (0 s -> 5 ns)
**************************************************************
DC simulation time: CPU = 612.953 ms, elapsed = 612.99 ms.

Notice from spectre during transient analysis `TmpRead-000_TmpRead', during task `MDLControl'.
    No outputs were found. Loosening output filter criterion to `allpub'.


Opening the PSF file Cell.raw/TmpRead-000_TmpRead.tran.tran ...
Important parameter values:
    start = 0 s
    outputstart = 0 s
    stop = 5 ns
    step = 5 ps
    maxstep = 100 ps
    ic = all
    useprevic = no
    skipdc = no
    reltol = 1e-03
    abstol(V) = 1 uV
    abstol(I) = 1 pA
    temp = 27 C
    tnom = 27 C
    tempeffects = all
    errpreset = moderate
    method = traponly
    lteratio = 3.5
    relref = sigglobal
    cmin = 5 fF
    gmin = 1 pS


Output and IC/nodeset summary:
                 save   1097    (current)
                 save   7241    (voltage)

Zero diagonal found in Jacobian at `X48.elim1:p' and `X48.n50'.
Zero diagonal found in Jacobian at `X208.eISensBin2:bs_p1_bs_p2_flow' and `X208.vISample:p'.
.........9......

Notice from spectre at time = 815.177 ps during transient analysis `TmpRead-000_TmpRead', during task `MDLControl'.
    Found trapezoidal ringing on node X224.elim2:p.

.........9.......

Notice from spectre at time = 850.564 ps during transient analysis `TmpRead-000_TmpRead', during task `MDLControl'.
    Found trapezoidal ringing on node X224.eVTMR:p.
Notice from spectre at time = 858.574 ps during transient analysis `TmpRead-000_TmpRead', during task `MDLControl'.
    Found trapezoidal ringing on node X224.eBiStable:p.
Notice from spectre at time = 867.876 ps during transient analysis `TmpRead-000_TmpRead', during task `MDLControl'.
    Found trapezoidal ringing on node X224.eVTMR:p.
Notice from spectre at time = 878.368 ps during transient analysis `TmpRead-000_TmpRead', during task `MDLControl'.
    Found trapezoidal ringing on node X224.eBiStable:p.
        Further occurrences of this notice will be suppressed.

.........9.........8.........7.........6.........5.........4.........3.........2.........1.........0
Number of accepted tran steps =             637

Notice from spectre during transient analysis `TmpRead-000_TmpRead', during task `MDLControl'.
    Trapezoidal ringing is detected during tran analysis.
        Please use method=trap for better results and performance.


Maximum value achieved for any signal of each quantity: 
V: V(X512.nBiStable) = 10 V
I: I(X224.eMux3:bs_p1_bs_p2_flow) = 77.52 A
If your circuit contains signals of the same quantity that are vastly different in size (such as high voltage circuitry combined with low voltage control circuitry), you should consider specifying global option `bin_relref=yes'.

~~~~~~~~~~~~~~~~~~~~~~~~~~~~~~~~~
Post-Transient Simulation Summary
~~~~~~~~~~~~~~~~~~~~~~~~~~~~~~~~~
   -   Parasitics slow down simulation. To speed up, consider
          add +postlayout on command line
   -   To further speed up simulation, consider
          add ++aps on command line
~~~~~~~~~~~~~~~~~~~~~~~~~~~~~~~~~


During simulation, the CPU load for active processors is :
        Spectre  0 (3.3 %)       1 (14.1 %)      2 (89.4 %)      3 (2.6 %)
        Other   
Initial condition solution time: CPU = 613.141 ms, elapsed = 613.189 ms.
Intrinsic tran analysis time:    CPU = 7.74527 s, elapsed = 7.77664 s.
Total time required for tran analysis `TmpRead-000_TmpRead': CPU = 8.40281 s, elapsed = 8.43437 s.
Time accumulated: CPU = 83.6279 s (1m  23.6s), elapsed = 84.0138 s (1m  24.0s).
Peak resident memory used = 139 Mbytes.


Notice from spectre during task `MDLControl'.
    219 notices suppressed.


Value of Exported Variables in this iteration of the Search loop ( iteration = 10 ) :
CurBL=0.000829937
TpRd=4.49609e-11

++++++++++++++++++++
TpRead = 1.65463e-09
++++++++++++++++++++

**************************************************************
Transient Analysis `TmpRead-000_TmpRead': time = (0 s -> 5 ns)
**************************************************************
DC simulation time: CPU = 614.337 ms, elapsed = 614.367 ms.

Notice from spectre during transient analysis `TmpRead-000_TmpRead', during task `MDLControl'.
    No outputs were found. Loosening output filter criterion to `allpub'.


Opening the PSF file Cell.raw/TmpRead-000_TmpRead.tran.tran ...
Important parameter values:
    start = 0 s
    outputstart = 0 s
    stop = 5 ns
    step = 5 ps
    maxstep = 100 ps
    ic = all
    useprevic = no
    skipdc = no
    reltol = 1e-03
    abstol(V) = 1 uV
    abstol(I) = 1 pA
    temp = 27 C
    tnom = 27 C
    tempeffects = all
    errpreset = moderate
    method = traponly
    lteratio = 3.5
    relref = sigglobal
    cmin = 5 fF
    gmin = 1 pS


Output and IC/nodeset summary:
                 save   1097    (current)
                 save   7241    (voltage)

Zero diagonal found in Jacobian at `X339.elim1:p' and `X339.n50'.
Zero diagonal found in Jacobian at `X450.eISensBin2:bs_p1_bs_p2_flow' and `X450.vISample:p'.
.........9......

Notice from spectre at time = 815.177 ps during transient analysis `TmpRead-000_TmpRead', during task `MDLControl'.
    Found trapezoidal ringing on node X224.elim2:p.

.........9.......

Notice from spectre at time = 850.564 ps during transient analysis `TmpRead-000_TmpRead', during task `MDLControl'.
    Found trapezoidal ringing on node X224.eVTMR:p.
Notice from spectre at time = 858.574 ps during transient analysis `TmpRead-000_TmpRead', during task `MDLControl'.
    Found trapezoidal ringing on node X224.eBiStable:p.
Notice from spectre at time = 867.876 ps during transient analysis `TmpRead-000_TmpRead', during task `MDLControl'.
    Found trapezoidal ringing on node X224.eVTMR:p.
Notice from spectre at time = 878.368 ps during transient analysis `TmpRead-000_TmpRead', during task `MDLControl'.
    Found trapezoidal ringing on node X224.eBiStable:p.
        Further occurrences of this notice will be suppressed.

.........9.........8.........7...

Notice from spectre at time = 1.65567 ns during transient analysis `TmpRead-000_TmpRead', during task `MDLControl'.
    Newton iteration fails to converge at time = 1.65567 ns step = 50.0444e-24 s.
        Disaster recovery algorithm is enabled to search for a converged solution.

.........9.........8.........7.........6.........5.........4.........3.........2.........1.........0
Number of accepted tran steps =             579

Notice from spectre during transient analysis `TmpRead-000_TmpRead', during task `MDLControl'.
    Trapezoidal ringing is detected during tran analysis.
        Please use method=trap for better results and performance.


Maximum value achieved for any signal of each quantity: 
V: V(X512.nBiStable) = 10 V
I: I(X224.eMux3:bs_p1_bs_p2_flow) = 77.52 A
If your circuit contains signals of the same quantity that are vastly different in size (such as high voltage circuitry combined with low voltage control circuitry), you should consider specifying global option `bin_relref=yes'.

~~~~~~~~~~~~~~~~~~~~~~~~~~~~~~~~~
Post-Transient Simulation Summary
~~~~~~~~~~~~~~~~~~~~~~~~~~~~~~~~~
   -   Parasitics slow down simulation. To speed up, consider
          add +postlayout on command line
   -   To further speed up simulation, consider
          add ++aps on command line
~~~~~~~~~~~~~~~~~~~~~~~~~~~~~~~~~


During simulation, the CPU load for active processors is :
        Spectre  0 (3.7 %)       1 (13.1 %)      2 (90.3 %)      3 (2.6 %)
        Other   
Initial condition solution time: CPU = 614.532 ms, elapsed = 614.573 ms.
Intrinsic tran analysis time:    CPU = 7.28281 s, elapsed = 7.31174 s.
Total time required for tran analysis `TmpRead-000_TmpRead': CPU = 7.94128 s, elapsed = 7.97038 s.
Time accumulated: CPU = 91.6841 s (1m  31.7s), elapsed = 92.0992 s (1m  32.1s).
Peak resident memory used = 139 Mbytes.


Notice from spectre during task `MDLControl'.
    149 notices suppressed.


Value of Exported Variables in this iteration of the Search loop ( iteration = 11 ) :
CurBL=0.000830524
TpRd=4.53711e-11

++++++++++++++++++++
TpRead = 1.65483e-09
++++++++++++++++++++

**************************************************************
Transient Analysis `TmpRead-000_TmpRead': time = (0 s -> 5 ns)
**************************************************************
DC simulation time: CPU = 651.2 ms, elapsed = 651.232 ms.

Notice from spectre during transient analysis `TmpRead-000_TmpRead', during task `MDLControl'.
    No outputs were found. Loosening output filter criterion to `allpub'.


Opening the PSF file Cell.raw/TmpRead-000_TmpRead.tran.tran ...
Important parameter values:
    start = 0 s
    outputstart = 0 s
    stop = 5 ns
    step = 5 ps
    maxstep = 100 ps
    ic = all
    useprevic = no
    skipdc = no
    reltol = 1e-03
    abstol(V) = 1 uV
    abstol(I) = 1 pA
    temp = 27 C
    tnom = 27 C
    tempeffects = all
    errpreset = moderate
    method = traponly
    lteratio = 3.5
    relref = sigglobal
    cmin = 5 fF
    gmin = 1 pS


Output and IC/nodeset summary:
                 save   1097    (current)
                 save   7241    (voltage)

Zero diagonal found in Jacobian at `X339.elim1:p' and `X339.n50'.
Zero diagonal found in Jacobian at `X477.eISensBin2:bs_p1_bs_p2_flow' and `X477.vISample:p'.
.........9......

Notice from spectre at time = 815.177 ps during transient analysis `TmpRead-000_TmpRead', during task `MDLControl'.
    Found trapezoidal ringing on node X224.elim2:p.

.........9.......

Notice from spectre at time = 850.564 ps during transient analysis `TmpRead-000_TmpRead', during task `MDLControl'.
    Found trapezoidal ringing on node X224.eVTMR:p.
Notice from spectre at time = 858.574 ps during transient analysis `TmpRead-000_TmpRead', during task `MDLControl'.
    Found trapezoidal ringing on node X224.eBiStable:p.
Notice from spectre at time = 867.876 ps during transient analysis `TmpRead-000_TmpRead', during task `MDLControl'.
    Found trapezoidal ringing on node X224.eVTMR:p.
Notice from spectre at time = 878.368 ps during transient analysis `TmpRead-000_TmpRead', during task `MDLControl'.
    Found trapezoidal ringing on node X224.eBiStable:p.
        Further occurrences of this notice will be suppressed.

.........9.........8.........7.........6.........5.........4.........3.........2.........1.........0
Number of accepted tran steps =             554

Notice from spectre during transient analysis `TmpRead-000_TmpRead', during task `MDLControl'.
    Trapezoidal ringing is detected during tran analysis.
        Please use method=trap for better results and performance.


Maximum value achieved for any signal of each quantity: 
V: V(X512.nBiStable) = 10 V
I: I(X224.eMux3:bs_p1_bs_p2_flow) = 77.52 A
If your circuit contains signals of the same quantity that are vastly different in size (such as high voltage circuitry combined with low voltage control circuitry), you should consider specifying global option `bin_relref=yes'.

~~~~~~~~~~~~~~~~~~~~~~~~~~~~~~~~~
Post-Transient Simulation Summary
~~~~~~~~~~~~~~~~~~~~~~~~~~~~~~~~~
   -   Parasitics slow down simulation. To speed up, consider
          add +postlayout on command line
   -   To further speed up simulation, consider
          add ++aps on command line
~~~~~~~~~~~~~~~~~~~~~~~~~~~~~~~~~


During simulation, the CPU load for active processors is :
        Spectre  0 (3.7 %)       1 (12.5 %)      2 (91.1 %)      3 (2.6 %)
        Other   
Initial condition solution time: CPU = 651.412 ms, elapsed = 651.456 ms.
Intrinsic tran analysis time:    CPU = 7.32389 s, elapsed = 7.34583 s.
Total time required for tran analysis `TmpRead-000_TmpRead': CPU = 8.01897 s, elapsed = 8.04108 s.
Time accumulated: CPU = 99.8184 s (1m  39.8s), elapsed = 100.256 s (1m  40.3s).
Peak resident memory used = 139 Mbytes.


Notice from spectre during task `MDLControl'.
    72 notices suppressed.


Value of Exported Variables in this iteration of the Search loop ( iteration = 12 ) :
CurBL=0.000830227
TpRd=4.5166e-11

++++++++++++++++++++
TpRead = 1.65494e-09
++++++++++++++++++++

**************************************************************
Transient Analysis `TmpRead-000_TmpRead': time = (0 s -> 5 ns)
**************************************************************
DC simulation time: CPU = 618.443 ms, elapsed = 618.473 ms.

Notice from spectre during transient analysis `TmpRead-000_TmpRead', during task `MDLControl'.
    No outputs were found. Loosening output filter criterion to `allpub'.


Opening the PSF file Cell.raw/TmpRead-000_TmpRead.tran.tran ...
Important parameter values:
    start = 0 s
    outputstart = 0 s
    stop = 5 ns
    step = 5 ps
    maxstep = 100 ps
    ic = all
    useprevic = no
    skipdc = no
    reltol = 1e-03
    abstol(V) = 1 uV
    abstol(I) = 1 pA
    temp = 27 C
    tnom = 27 C
    tempeffects = all
    errpreset = moderate
    method = traponly
    lteratio = 3.5
    relref = sigglobal
    cmin = 5 fF
    gmin = 1 pS


Output and IC/nodeset summary:
                 save   1097    (current)
                 save   7241    (voltage)

Zero diagonal found in Jacobian at `X455.elim1:p' and `X455.n50'.
Zero diagonal found in Jacobian at `X395.eISensBin2:bs_p1_bs_p2_flow' and `X395.vISample:p'.
.........9......

Notice from spectre at time = 815.177 ps during transient analysis `TmpRead-000_TmpRead', during task `MDLControl'.
    Found trapezoidal ringing on node X224.elim2:p.

.........9.......

Notice from spectre at time = 850.564 ps during transient analysis `TmpRead-000_TmpRead', during task `MDLControl'.
    Found trapezoidal ringing on node X224.eVTMR:p.
Notice from spectre at time = 858.574 ps during transient analysis `TmpRead-000_TmpRead', during task `MDLControl'.
    Found trapezoidal ringing on node X224.eBiStable:p.
Notice from spectre at time = 867.876 ps during transient analysis `TmpRead-000_TmpRead', during task `MDLControl'.
    Found trapezoidal ringing on node X224.eVTMR:p.
Notice from spectre at time = 878.368 ps during transient analysis `TmpRead-000_TmpRead', during task `MDLControl'.
    Found trapezoidal ringing on node X224.eBiStable:p.
        Further occurrences of this notice will be suppressed.

.........9.........8.........7.........6.........5.........4.........3.........2.........1.........0
Number of accepted tran steps =             723

Notice from spectre during transient analysis `TmpRead-000_TmpRead', during task `MDLControl'.
    Trapezoidal ringing is detected during tran analysis.
        Please use method=trap for better results and performance.


Maximum value achieved for any signal of each quantity: 
V: V(X512.nBiStable) = 10 V
I: I(X224.eMux3:bs_p1_bs_p2_flow) = 77.52 A
If your circuit contains signals of the same quantity that are vastly different in size (such as high voltage circuitry combined with low voltage control circuitry), you should consider specifying global option `bin_relref=yes'.

~~~~~~~~~~~~~~~~~~~~~~~~~~~~~~~~~
Post-Transient Simulation Summary
~~~~~~~~~~~~~~~~~~~~~~~~~~~~~~~~~
   -   Parasitics slow down simulation. To speed up, consider
          add +postlayout on command line
   -   To further speed up simulation, consider
          add ++aps on command line
~~~~~~~~~~~~~~~~~~~~~~~~~~~~~~~~~


During simulation, the CPU load for active processors is :
        Spectre  0 (3.7 %)       1 (11.5 %)      2 (91.9 %)      3 (2.6 %)
        Other   
Initial condition solution time: CPU = 618.634 ms, elapsed = 618.674 ms.
Intrinsic tran analysis time:    CPU = 10.065 s, elapsed = 10.1025 s.
Total time required for tran analysis `TmpRead-000_TmpRead': CPU = 10.7268 s, elapsed = 10.7644 s.
Time accumulated: CPU = 110.664 s (1m  50.7s), elapsed = 111.139 s (1m  51.1s).
Peak resident memory used = 139 Mbytes.


Notice from spectre during task `MDLControl'.
    203 notices suppressed.


Value of Exported Variables in this iteration of the Search loop ( iteration = 13 ) :
CurBL=0.000830082
TpRd=4.50635e-11

++++++++++++++++++++
TpRead = 1.65499e-09
++++++++++++++++++++

**************************************************************
Transient Analysis `TmpRead-000_TmpRead': time = (0 s -> 5 ns)
**************************************************************
DC simulation time: CPU = 623.733 ms, elapsed = 623.77 ms.

Notice from spectre during transient analysis `TmpRead-000_TmpRead', during task `MDLControl'.
    No outputs were found. Loosening output filter criterion to `allpub'.


Opening the PSF file Cell.raw/TmpRead-000_TmpRead.tran.tran ...
Important parameter values:
    start = 0 s
    outputstart = 0 s
    stop = 5 ns
    step = 5 ps
    maxstep = 100 ps
    ic = all
    useprevic = no
    skipdc = no
    reltol = 1e-03
    abstol(V) = 1 uV
    abstol(I) = 1 pA
    temp = 27 C
    tnom = 27 C
    tempeffects = all
    errpreset = moderate
    method = traponly
    lteratio = 3.5
    relref = sigglobal
    cmin = 5 fF
    gmin = 1 pS


Output and IC/nodeset summary:
                 save   1097    (current)
                 save   7241    (voltage)

Zero diagonal found in Jacobian at `X440.elim1:p' and `X440.n50'.
Zero diagonal found in Jacobian at `X43.eISensBin2:bs_p1_bs_p2_flow' and `X43.vISample:p'.
.........9......

Notice from spectre at time = 815.177 ps during transient analysis `TmpRead-000_TmpRead', during task `MDLControl'.
    Found trapezoidal ringing on node X224.elim2:p.

.........9.......

Notice from spectre at time = 850.564 ps during transient analysis `TmpRead-000_TmpRead', during task `MDLControl'.
    Found trapezoidal ringing on node X224.eVTMR:p.
Notice from spectre at time = 858.574 ps during transient analysis `TmpRead-000_TmpRead', during task `MDLControl'.
    Found trapezoidal ringing on node X224.eBiStable:p.
Notice from spectre at time = 867.876 ps during transient analysis `TmpRead-000_TmpRead', during task `MDLControl'.
    Found trapezoidal ringing on node X224.eVTMR:p.
Notice from spectre at time = 878.368 ps during transient analysis `TmpRead-000_TmpRead', during task `MDLControl'.
    Found trapezoidal ringing on node X224.eBiStable:p.
        Further occurrences of this notice will be suppressed.

.........9.........8.........7...

Notice from spectre at time = 1.65603 ns during transient analysis `TmpRead-000_TmpRead', during task `MDLControl'.
    Newton iteration fails to converge at time = 1.65603 ns step = 50.0444e-24 s.
        Disaster recovery algorithm is enabled to search for a converged solution.

.........9.........8.........7.........6.........5.........4.........3.........2.........1.........0
Number of accepted tran steps =             579

Notice from spectre during transient analysis `TmpRead-000_TmpRead', during task `MDLControl'.
    Trapezoidal ringing is detected during tran analysis.
        Please use method=trap for better results and performance.


Maximum value achieved for any signal of each quantity: 
V: V(X512.nBiStable) = 10 V
I: I(X224.eMux3:bs_p1_bs_p2_flow) = 77.52 A
If your circuit contains signals of the same quantity that are vastly different in size (such as high voltage circuitry combined with low voltage control circuitry), you should consider specifying global option `bin_relref=yes'.

~~~~~~~~~~~~~~~~~~~~~~~~~~~~~~~~~
Post-Transient Simulation Summary
~~~~~~~~~~~~~~~~~~~~~~~~~~~~~~~~~
   -   Parasitics slow down simulation. To speed up, consider
          add +postlayout on command line
   -   To further speed up simulation, consider
          add ++aps on command line
~~~~~~~~~~~~~~~~~~~~~~~~~~~~~~~~~


During simulation, the CPU load for active processors is :
        Spectre  0 (3.6 %)       1 (10.9 %)      2 (92.4 %)      3 (2.5 %)
        Other   
Initial condition solution time: CPU = 623.928 ms, elapsed = 623.977 ms.
Intrinsic tran analysis time:    CPU = 7.27109 s, elapsed = 7.29503 s.
Total time required for tran analysis `TmpRead-000_TmpRead': CPU = 7.93972 s, elapsed = 7.96385 s.
Time accumulated: CPU = 118.718 s (1m  58.7s), elapsed = 119.217 s (1m  59.2s).
Peak resident memory used = 139 Mbytes.


Notice from spectre during task `MDLControl'.
    149 notices suppressed.


Value of Exported Variables in this iteration of the Search loop ( iteration = 14 ) :
CurBL=0.000830015
TpRd=4.50122e-11

++++++++++++++++++++
TpRead = 1.65501e-09
++++++++++++++++++++

**************************************************************
Transient Analysis `TmpRead-000_TmpRead': time = (0 s -> 5 ns)
**************************************************************
DC simulation time: CPU = 629.243 ms, elapsed = 629.28 ms.

Notice from spectre during transient analysis `TmpRead-000_TmpRead', during task `MDLControl'.
    No outputs were found. Loosening output filter criterion to `allpub'.


Opening the PSF file Cell.raw/TmpRead-000_TmpRead.tran.tran ...
Important parameter values:
    start = 0 s
    outputstart = 0 s
    stop = 5 ns
    step = 5 ps
    maxstep = 100 ps
    ic = all
    useprevic = no
    skipdc = no
    reltol = 1e-03
    abstol(V) = 1 uV
    abstol(I) = 1 pA
    temp = 27 C
    tnom = 27 C
    tempeffects = all
    errpreset = moderate
    method = traponly
    lteratio = 3.5
    relref = sigglobal
    cmin = 5 fF
    gmin = 1 pS


Output and IC/nodeset summary:
                 save   1097    (current)
                 save   7241    (voltage)

Zero diagonal found in Jacobian at `X339.elim1:p' and `X339.n50'.
Zero diagonal found in Jacobian at `X493.eISensBin2:bs_p1_bs_p2_flow' and `X493.vISample:p'.
.........9......

Notice from spectre at time = 815.177 ps during transient analysis `TmpRead-000_TmpRead', during task `MDLControl'.
    Found trapezoidal ringing on node X224.elim2:p.

.........9.......

Notice from spectre at time = 850.564 ps during transient analysis `TmpRead-000_TmpRead', during task `MDLControl'.
    Found trapezoidal ringing on node X224.eVTMR:p.
Notice from spectre at time = 858.574 ps during transient analysis `TmpRead-000_TmpRead', during task `MDLControl'.
    Found trapezoidal ringing on node X224.eBiStable:p.
Notice from spectre at time = 867.876 ps during transient analysis `TmpRead-000_TmpRead', during task `MDLControl'.
    Found trapezoidal ringing on node X224.eVTMR:p.
Notice from spectre at time = 878.368 ps during transient analysis `TmpRead-000_TmpRead', during task `MDLControl'.
    Found trapezoidal ringing on node X224.eBiStable:p.
        Further occurrences of this notice will be suppressed.

.........9.........8.........7.........6.........5.........4.........3.........2.........1.........0
Number of accepted tran steps =             594

Notice from spectre during transient analysis `TmpRead-000_TmpRead', during task `MDLControl'.
    Trapezoidal ringing is detected during tran analysis.
        Please use method=trap for better results and performance.


Maximum value achieved for any signal of each quantity: 
V: V(X512.nBiStable) = 10 V
I: I(X224.eMux3:bs_p1_bs_p2_flow) = 77.52 A
If your circuit contains signals of the same quantity that are vastly different in size (such as high voltage circuitry combined with low voltage control circuitry), you should consider specifying global option `bin_relref=yes'.

~~~~~~~~~~~~~~~~~~~~~~~~~~~~~~~~~
Post-Transient Simulation Summary
~~~~~~~~~~~~~~~~~~~~~~~~~~~~~~~~~
   -   Parasitics slow down simulation. To speed up, consider
          add +postlayout on command line
   -   To further speed up simulation, consider
          add ++aps on command line
~~~~~~~~~~~~~~~~~~~~~~~~~~~~~~~~~


During simulation, the CPU load for active processors is :
        Spectre  0 (3.5 %)       1 (10.4 %)      2 (92.9 %)      3 (2.5 %)
        Other   
Initial condition solution time: CPU = 629.436 ms, elapsed = 629.484 ms.
Intrinsic tran analysis time:    CPU = 7.29392 s, elapsed = 7.30791 s.
Total time required for tran analysis `TmpRead-000_TmpRead': CPU = 7.96676 s, elapsed = 7.98095 s.
Time accumulated: CPU = 126.803 s (2m  6.8s), elapsed = 127.316 s (2m  7.3s).
Peak resident memory used = 139 Mbytes.


Notice from spectre during task `MDLControl'.
    161 notices suppressed.


Value of Exported Variables in this iteration of the Search loop ( iteration = 15 ) :
CurBL=0.000829973
TpRd=4.49866e-11

++++++++++++++++++
TpRead = 1.655e-09
++++++++++++++++++

**************************************************************
Transient Analysis `TmpRead-000_TmpRead': time = (0 s -> 5 ns)
**************************************************************
DC simulation time: CPU = 638.053 ms, elapsed = 638.091 ms.

Notice from spectre during transient analysis `TmpRead-000_TmpRead', during task `MDLControl'.
    No outputs were found. Loosening output filter criterion to `allpub'.


Opening the PSF file Cell.raw/TmpRead-000_TmpRead.tran.tran ...
Important parameter values:
    start = 0 s
    outputstart = 0 s
    stop = 5 ns
    step = 5 ps
    maxstep = 100 ps
    ic = all
    useprevic = no
    skipdc = no
    reltol = 1e-03
    abstol(V) = 1 uV
    abstol(I) = 1 pA
    temp = 27 C
    tnom = 27 C
    tempeffects = all
    errpreset = moderate
    method = traponly
    lteratio = 3.5
    relref = sigglobal
    cmin = 5 fF
    gmin = 1 pS


Output and IC/nodeset summary:
                 save   1097    (current)
                 save   7241    (voltage)

Zero diagonal found in Jacobian at `X400.elim1:p' and `X400.n50'.
.........9......

Notice from spectre at time = 815.177 ps during transient analysis `TmpRead-000_TmpRead', during task `MDLControl'.
    Found trapezoidal ringing on node X224.elim2:p.

.........9.......

Notice from spectre at time = 850.564 ps during transient analysis `TmpRead-000_TmpRead', during task `MDLControl'.
    Found trapezoidal ringing on node X224.eVTMR:p.
Notice from spectre at time = 858.574 ps during transient analysis `TmpRead-000_TmpRead', during task `MDLControl'.
    Found trapezoidal ringing on node X224.eBiStable:p.
Notice from spectre at time = 867.876 ps during transient analysis `TmpRead-000_TmpRead', during task `MDLControl'.
    Found trapezoidal ringing on node X224.eVTMR:p.
Notice from spectre at time = 878.368 ps during transient analysis `TmpRead-000_TmpRead', during task `MDLControl'.
    Found trapezoidal ringing on node X224.eBiStable:p.
        Further occurrences of this notice will be suppressed.

.........9.........8.........7.........6.........5....
Zero diagonal found in Jacobian at `X245.elim2:p' and `X245.n51'.
.....4.........3.........2.........1.........0
Number of accepted tran steps =             523

Notice from spectre during transient analysis `TmpRead-000_TmpRead', during task `MDLControl'.
    Trapezoidal ringing is detected during tran analysis.
        Please use method=trap for better results and performance.


Maximum value achieved for any signal of each quantity: 
V: V(X512.nBiStable) = 10 V
I: I(X224.eMux3:bs_p1_bs_p2_flow) = 77.52 A
If your circuit contains signals of the same quantity that are vastly different in size (such as high voltage circuitry combined with low voltage control circuitry), you should consider specifying global option `bin_relref=yes'.

~~~~~~~~~~~~~~~~~~~~~~~~~~~~~~~~~
Post-Transient Simulation Summary
~~~~~~~~~~~~~~~~~~~~~~~~~~~~~~~~~
   -   Parasitics slow down simulation. To speed up, consider
          add +postlayout on command line
   -   To further speed up simulation, consider
          add ++aps on command line
~~~~~~~~~~~~~~~~~~~~~~~~~~~~~~~~~


During simulation, the CPU load for active processors is :
        Spectre  0 (3.4 %)       1 (9.9 %)       2 (93.3 %)      3 (2.5 %)
        Other   
Initial condition solution time: CPU = 638.249 ms, elapsed = 638.299 ms.
Intrinsic tran analysis time:    CPU = 6.60526 s, elapsed = 6.62617 s.
Total time required for tran analysis `TmpRead-000_TmpRead': CPU = 7.28769 s, elapsed = 7.30878 s.
Time accumulated: CPU = 134.208 s (2m  14.2s), elapsed = 134.743 s (2m  14.7s).
Peak resident memory used = 141 Mbytes.


Notice from spectre during task `MDLControl'.
    75 notices suppressed.


Value of Exported Variables in this iteration of the Search loop ( iteration = 16 ) :
CurBL=0.000829992
TpRd=4.49994e-11

++++++++++++++++++++
TpRead = 1.65499e-09
++++++++++++++++++++

**************************************************************
Transient Analysis `TmpRead-000_TmpRead': time = (0 s -> 5 ns)
**************************************************************
DC simulation time: CPU = 628.837 ms, elapsed = 628.874 ms.

Notice from spectre during transient analysis `TmpRead-000_TmpRead', during task `MDLControl'.
    No outputs were found. Loosening output filter criterion to `allpub'.


Opening the PSF file Cell.raw/TmpRead-000_TmpRead.tran.tran ...
Important parameter values:
    start = 0 s
    outputstart = 0 s
    stop = 5 ns
    step = 5 ps
    maxstep = 100 ps
    ic = all
    useprevic = no
    skipdc = no
    reltol = 1e-03
    abstol(V) = 1 uV
    abstol(I) = 1 pA
    temp = 27 C
    tnom = 27 C
    tempeffects = all
    errpreset = moderate
    method = traponly
    lteratio = 3.5
    relref = sigglobal
    cmin = 5 fF
    gmin = 1 pS


Output and IC/nodeset summary:
                 save   1097    (current)
                 save   7241    (voltage)

Zero diagonal found in Jacobian at `X440.elim1:p' and `X440.n50'.
Zero diagonal found in Jacobian at `X37.eISensBin2:bs_p1_bs_p2_flow' and `X37.vISample:p'.
.........9......

Notice from spectre at time = 815.177 ps during transient analysis `TmpRead-000_TmpRead', during task `MDLControl'.
    Found trapezoidal ringing on node X224.elim2:p.

.........9.......

Notice from spectre at time = 850.564 ps during transient analysis `TmpRead-000_TmpRead', during task `MDLControl'.
    Found trapezoidal ringing on node X224.eVTMR:p.
Notice from spectre at time = 858.574 ps during transient analysis `TmpRead-000_TmpRead', during task `MDLControl'.
    Found trapezoidal ringing on node X224.eBiStable:p.
Notice from spectre at time = 867.876 ps during transient analysis `TmpRead-000_TmpRead', during task `MDLControl'.
    Found trapezoidal ringing on node X224.eVTMR:p.
Notice from spectre at time = 878.368 ps during transient analysis `TmpRead-000_TmpRead', during task `MDLControl'.
    Found trapezoidal ringing on node X224.eBiStable:p.
        Further occurrences of this notice will be suppressed.

.........9.........8.........7.........6.........5.........4.........3.........2.........1.........0
Number of accepted tran steps =             604

Notice from spectre during transient analysis `TmpRead-000_TmpRead', during task `MDLControl'.
    Trapezoidal ringing is detected during tran analysis.
        Please use method=trap for better results and performance.


Maximum value achieved for any signal of each quantity: 
V: V(X512.nBiStable) = 10 V
I: I(X224.eMux3:bs_p1_bs_p2_flow) = 77.52 A
If your circuit contains signals of the same quantity that are vastly different in size (such as high voltage circuitry combined with low voltage control circuitry), you should consider specifying global option `bin_relref=yes'.

~~~~~~~~~~~~~~~~~~~~~~~~~~~~~~~~~
Post-Transient Simulation Summary
~~~~~~~~~~~~~~~~~~~~~~~~~~~~~~~~~
   -   Parasitics slow down simulation. To speed up, consider
          add +postlayout on command line
   -   To further speed up simulation, consider
          add ++aps on command line
~~~~~~~~~~~~~~~~~~~~~~~~~~~~~~~~~


During simulation, the CPU load for active processors is :
        Spectre  0 (3.4 %)       1 (9.5 %)       2 (93.7 %)      3 (2.4 %)
        Other   
Initial condition solution time: CPU = 629.04 ms, elapsed = 629.087 ms.
Intrinsic tran analysis time:    CPU = 7.47074 s, elapsed = 7.49212 s.
Total time required for tran analysis `TmpRead-000_TmpRead': CPU = 8.14297 s, elapsed = 8.16452 s.
Time accumulated: CPU = 142.467 s (2m  22.5s), elapsed = 143.023 s (2m  23.0s).
Peak resident memory used = 141 Mbytes.


Notice from spectre during task `MDLControl'.
    175 notices suppressed.


Value of Exported Variables in this iteration of the Search loop ( iteration = 17 ) :
CurBL=0.000830001
TpRd=4.50058e-11

++++++++++++++++++
TpRead = 1.655e-09
++++++++++++++++++

**************************************************************
Transient Analysis `TmpRead-000_TmpRead': time = (0 s -> 5 ns)
**************************************************************
DC simulation time: CPU = 601.799 ms, elapsed = 601.834 ms.

Notice from spectre during transient analysis `TmpRead-000_TmpRead', during task `MDLControl'.
    No outputs were found. Loosening output filter criterion to `allpub'.


Opening the PSF file Cell.raw/TmpRead-000_TmpRead.tran.tran ...
Important parameter values:
    start = 0 s
    outputstart = 0 s
    stop = 5 ns
    step = 5 ps
    maxstep = 100 ps
    ic = all
    useprevic = no
    skipdc = no
    reltol = 1e-03
    abstol(V) = 1 uV
    abstol(I) = 1 pA
    temp = 27 C
    tnom = 27 C
    tempeffects = all
    errpreset = moderate
    method = traponly
    lteratio = 3.5
    relref = sigglobal
    cmin = 5 fF
    gmin = 1 pS


Output and IC/nodeset summary:
                 save   1097    (current)
                 save   7241    (voltage)

Zero diagonal found in Jacobian at `X440.elim1:p' and `X440.n50'.
Zero diagonal found in Jacobian at `X352.eISensBin2:bs_p1_bs_p2_flow' and `X352.vISample:p'.
.........9......

Notice from spectre at time = 815.177 ps during transient analysis `TmpRead-000_TmpRead', during task `MDLControl'.
    Found trapezoidal ringing on node X224.elim2:p.

.........9.......

Notice from spectre at time = 850.564 ps during transient analysis `TmpRead-000_TmpRead', during task `MDLControl'.
    Found trapezoidal ringing on node X224.eVTMR:p.
Notice from spectre at time = 858.574 ps during transient analysis `TmpRead-000_TmpRead', during task `MDLControl'.
    Found trapezoidal ringing on node X224.eBiStable:p.
Notice from spectre at time = 867.876 ps during transient analysis `TmpRead-000_TmpRead', during task `MDLControl'.
    Found trapezoidal ringing on node X224.eVTMR:p.
Notice from spectre at time = 878.368 ps during transient analysis `TmpRead-000_TmpRead', during task `MDLControl'.
    Found trapezoidal ringing on node X224.eBiStable:p.
        Further occurrences of this notice will be suppressed.

.........9.........8.........7.........6.........5.........4.........3.........2.........1.........0
Number of accepted tran steps =             594

Notice from spectre during transient analysis `TmpRead-000_TmpRead', during task `MDLControl'.
    Trapezoidal ringing is detected during tran analysis.
        Please use method=trap for better results and performance.


Maximum value achieved for any signal of each quantity: 
V: V(X512.nBiStable) = 10 V
I: I(X224.eMux3:bs_p1_bs_p2_flow) = 77.52 A
If your circuit contains signals of the same quantity that are vastly different in size (such as high voltage circuitry combined with low voltage control circuitry), you should consider specifying global option `bin_relref=yes'.

~~~~~~~~~~~~~~~~~~~~~~~~~~~~~~~~~
Post-Transient Simulation Summary
~~~~~~~~~~~~~~~~~~~~~~~~~~~~~~~~~
   -   Parasitics slow down simulation. To speed up, consider
          add +postlayout on command line
   -   To further speed up simulation, consider
          add ++aps on command line
~~~~~~~~~~~~~~~~~~~~~~~~~~~~~~~~~


During simulation, the CPU load for active processors is :
        Spectre  0 (3.3 %)       1 (9.1 %)       2 (94.0 %)      3 (2.4 %)
        Other   
Initial condition solution time: CPU = 601.995 ms, elapsed = 602.042 ms.
Intrinsic tran analysis time:    CPU = 7.3112 s, elapsed = 7.33003 s.
Total time required for tran analysis `TmpRead-000_TmpRead': CPU = 7.95618 s, elapsed = 7.97518 s.
Time accumulated: CPU = 150.539 s (2m  30.5s), elapsed = 151.114 s (2m  31.1s).
Peak resident memory used = 141 Mbytes.


Notice from spectre during task `MDLControl'.
    161 notices suppressed.


Value of Exported Variables in this iteration of the Search loop ( iteration = 18 ) :
CurBL=0.000829996
TpRd=4.50026e-11

++++++++++++++++++
TpRead = 1.655e-09
++++++++++++++++++

**************************************************************
Transient Analysis `TmpRead-000_TmpRead': time = (0 s -> 5 ns)
**************************************************************
DC simulation time: CPU = 593.86 ms, elapsed = 593.893 ms.

Notice from spectre during transient analysis `TmpRead-000_TmpRead', during task `MDLControl'.
    No outputs were found. Loosening output filter criterion to `allpub'.


Opening the PSF file Cell.raw/TmpRead-000_TmpRead.tran.tran ...
Important parameter values:
    start = 0 s
    outputstart = 0 s
    stop = 5 ns
    step = 5 ps
    maxstep = 100 ps
    ic = all
    useprevic = no
    skipdc = no
    reltol = 1e-03
    abstol(V) = 1 uV
    abstol(I) = 1 pA
    temp = 27 C
    tnom = 27 C
    tempeffects = all
    errpreset = moderate
    method = traponly
    lteratio = 3.5
    relref = sigglobal
    cmin = 5 fF
    gmin = 1 pS


Output and IC/nodeset summary:
                 save   1097    (current)
                 save   7241    (voltage)

Zero diagonal found in Jacobian at `X117.eISensBin1:bs_p1_bs_p2_flow' and `X117.vISample:p'.
Zero diagonal found in Jacobian at `X489.eISensBin2:bs_p1_bs_p2_flow' and `X489.vISample:p'.
.........9......

Notice from spectre at time = 815.177 ps during transient analysis `TmpRead-000_TmpRead', during task `MDLControl'.
    Found trapezoidal ringing on node X224.elim2:p.

.........9.......

Notice from spectre at time = 850.564 ps during transient analysis `TmpRead-000_TmpRead', during task `MDLControl'.
    Found trapezoidal ringing on node X224.eVTMR:p.
Notice from spectre at time = 858.574 ps during transient analysis `TmpRead-000_TmpRead', during task `MDLControl'.
    Found trapezoidal ringing on node X224.eBiStable:p.
Notice from spectre at time = 867.876 ps during transient analysis `TmpRead-000_TmpRead', during task `MDLControl'.
    Found trapezoidal ringing on node X224.eVTMR:p.
Notice from spectre at time = 878.368 ps during transient analysis `TmpRead-000_TmpRead', during task `MDLControl'.
    Found trapezoidal ringing on node X224.eBiStable:p.
        Further occurrences of this notice will be suppressed.

.........9.........8.........7.........6.........5.........4.........3.........2.........1.........0
Number of accepted tran steps =             559

Notice from spectre during transient analysis `TmpRead-000_TmpRead', during task `MDLControl'.
    Trapezoidal ringing is detected during tran analysis.
        Please use method=trap for better results and performance.


Maximum value achieved for any signal of each quantity: 
V: V(X512.nBiStable) = 10 V
I: I(X224.eMux3:bs_p1_bs_p2_flow) = 77.52 A
If your circuit contains signals of the same quantity that are vastly different in size (such as high voltage circuitry combined with low voltage control circuitry), you should consider specifying global option `bin_relref=yes'.

~~~~~~~~~~~~~~~~~~~~~~~~~~~~~~~~~
Post-Transient Simulation Summary
~~~~~~~~~~~~~~~~~~~~~~~~~~~~~~~~~
   -   Parasitics slow down simulation. To speed up, consider
          add +postlayout on command line
   -   To further speed up simulation, consider
          add ++aps on command line
~~~~~~~~~~~~~~~~~~~~~~~~~~~~~~~~~


[...]
Model: vsource
Primitive: vsource
          p : V(NM413) = 800 mV
          n : V(X413.nVCR1) = 800 mV
          v = 0 V
          i = 0 A
        pwr = 0 W

Instance: X414.vISample of MTJT
Model: vsource
Primitive: vsource
          p : V(NM414) = 800 mV
          n : V(X414.nVCR1) = 800 mV
          v = 0 V
          i = 0 A
        pwr = 0 W

Instance: X415.vISample of MTJT
Model: vsource
Primitive: vsource
          p : V(NM415) = 800 mV
          n : V(X415.nVCR1) = 800 mV
          v = 0 V
          i = 0 A
        pwr = 0 W

Instance: X416.vISample of MTJT
Model: vsource
Primitive: vsource
          p : V(NM416) = 800 mV
          n : V(X416.nVCR1) = 800 mV
          v = 0 V
          i = 0 A
        pwr = 0 W

Instance: X417.vISample of MTJT
Model: vsource
Primitive: vsource
          p : V(NM417) = 800 mV
          n : V(X417.nVCR1) = 800 mV
          v = 0 V
          i = 0 A
        pwr = 0 W

Instance: X418.vISample of MTJT
Model: vsource
Primitive: vsource
          p : V(NM418) = 800 mV
          n : V(X418.nVCR1) = 800 mV
          v = 0 V
          i = 0 A
        pwr = 0 W

Instance: X419.vISample of MTJT
Model: vsource
Primitive: vsource
          p : V(NM419) = 800 mV
          n : V(X419.nVCR1) = 800 mV
          v = 0 V
          i = 0 A
        pwr = 0 W

Instance: X420.vISample of MTJT
Model: vsource
Primitive: vsource
          p : V(NM420) = 800 mV
          n : V(X420.nVCR1) = 800 mV
          v = 0 V
          i = 0 A
        pwr = 0 W

Instance: X421.vISample of MTJT
Model: vsource
Primitive: vsource
          p : V(NM421) = 800 mV
          n : V(X421.nVCR1) = 800 mV
          v = 0 V
          i = 0 A
        pwr = 0 W

Instance: X422.vISample of MTJT
Model: vsource
Primitive: vsource
          p : V(NM422) = 800 mV
          n : V(X422.nVCR1) = 800 mV
          v = 0 V
          i = 0 A
        pwr = 0 W

Instance: X423.vISample of MTJT
Model: vsource
Primitive: vsource
          p : V(NM423) = 800 mV
          n : V(X423.nVCR1) = 800 mV
          v = 0 V
          i = 0 A
        pwr = 0 W

Instance: X424.vISample of MTJT
Model: vsource
Primitive: vsource
          p : V(NM424) = 800 mV
          n : V(X424.nVCR1) = 800 mV
          v = 0 V
          i = 0 A
        pwr = 0 W

Instance: X425.vISample of MTJT
Model: vsource
Primitive: vsource
          p : V(NM425) = 800 mV
          n : V(X425.nVCR1) = 800 mV
          v = 0 V
          i = 0 A
        pwr = 0 W

Instance: X426.vISample of MTJT
Model: vsource
Primitive: vsource
          p : V(NM426) = 800 mV
          n : V(X426.nVCR1) = 800 mV
          v = 0 V
          i = 0 A
        pwr = 0 W

Instance: X427.vISample of MTJT
Model: vsource
Primitive: vsource
          p : V(NM427) = 800 mV
          n : V(X427.nVCR1) = 800 mV
          v = 0 V
          i = 0 A
        pwr = 0 W

Instance: X428.vISample of MTJT
Model: vsource
Primitive: vsource
          p : V(NM428) = 800 mV
          n : V(X428.nVCR1) = 800 mV
          v = 0 V
          i = 0 A
        pwr = 0 W

Instance: X429.vISample of MTJT
Model: vsource
Primitive: vsource
          p : V(NM429) = 800 mV
          n : V(X429.nVCR1) = 800 mV
          v = 0 V
          i = 0 A
        pwr = 0 W

Instance: X430.vISample of MTJT
Model: vsource
Primitive: vsource
          p : V(NM430) = 800 mV
          n : V(X430.nVCR1) = 800 mV
          v = 0 V
          i = 0 A
        pwr = 0 W

Instance: X431.vISample of MTJT
Model: vsource
Primitive: vsource
          p : V(NM431) = 800 mV
          n : V(X431.nVCR1) = 800 mV
          v = 0 V
          i = 0 A
        pwr = 0 W

Instance: X432.vISample of MTJT
Model: vsource
Primitive: vsource
          p : V(NM432) = 800 mV
          n : V(X432.nVCR1) = 800 mV
          v = 0 V
          i = 0 A
        pwr = 0 W

Instance: X433.vISample of MTJT
Model: vsource
Primitive: vsource
          p : V(NM433) = 800 mV
          n : V(X433.nVCR1) = 800 mV
          v = 0 V
          i = 0 A
        pwr = 0 W

Instance: X434.vISample of MTJT
Model: vsource
Primitive: vsource
          p : V(NM434) = 800 mV
          n : V(X434.nVCR1) = 800 mV
          v = 0 V
          i = 0 A
        pwr = 0 W

Instance: X435.vISample of MTJT
Model: vsource
Primitive: vsource
          p : V(NM435) = 800 mV
          n : V(X435.nVCR1) = 800 mV
          v = 0 V
          i = 0 A
        pwr = 0 W

Instance: X436.vISample of MTJT
Model: vsource
Primitive: vsource
          p : V(NM436) = 800 mV
          n : V(X436.nVCR1) = 800 mV
          v = 0 V
          i = 0 A
        pwr = 0 W

Instance: X437.vISample of MTJT
Model: vsource
Primitive: vsource
          p : V(NM437) = 800 mV
          n : V(X437.nVCR1) = 800 mV
          v = 0 V
          i = 0 A
        pwr = 0 W

Instance: X438.vISample of MTJT
Model: vsource
Primitive: vsource
          p : V(NM438) = 800 mV
          n : V(X438.nVCR1) = 800 mV
          v = 0 V
          i = 0 A
        pwr = 0 W

Instance: X439.vISample of MTJT
Model: vsource
Primitive: vsource
          p : V(NM439) = 800 mV
          n : V(X439.nVCR1) = 800 mV
          v = 0 V
          i = 0 A
        pwr = 0 W

Instance: X440.vISample of MTJT
Model: vsource
Primitive: vsource
          p : V(NM440) = 800 mV
          n : V(X440.nVCR1) = 800 mV
          v = 0 V
          i = 0 A
        pwr = 0 W

Instance: X441.vISample of MTJT
Model: vsource
Primitive: vsource
          p : V(NM441) = 800 mV
          n : V(X441.nVCR1) = 800 mV
          v = 0 V
          i = 0 A
        pwr = 0 W

Instance: X442.vISample of MTJT
Model: vsource
Primitive: vsource
          p : V(NM442) = 800 mV
          n : V(X442.nVCR1) = 800 mV
          v = 0 V
          i = 0 A
        pwr = 0 W

Instance: X443.vISample of MTJT
Model: vsource
Primitive: vsource
          p : V(NM443) = 800 mV
          n : V(X443.nVCR1) = 800 mV
          v = 0 V
          i = 0 A
        pwr = 0 W

Instance: X444.vISample of MTJT
Model: vsource
Primitive: vsource
          p : V(NM444) = 800 mV
          n : V(X444.nVCR1) = 800 mV
          v = 0 V
          i = 0 A
        pwr = 0 W

Instance: X445.vISample of MTJT
Model: vsource
Primitive: vsource
          p : V(NM445) = 800 mV
          n : V(X445.nVCR1) = 800 mV
          v = 0 V
          i = 0 A
        pwr = 0 W

Instance: X446.vISample of MTJT
Model: vsource
Primitive: vsource
          p : V(NM446) = 800 mV
          n : V(X446.nVCR1) = 800 mV
          v = 0 V
          i = 0 A
        pwr = 0 W

Instance: X447.vISample of MTJT
Model: vsource
Primitive: vsource
          p : V(NM447) = 800 mV
          n : V(X447.nVCR1) = 800 mV
          v = 0 V
          i = 0 A
        pwr = 0 W

Instance: X448.vISample of MTJT
Model: vsource
Primitive: vsource
          p : V(NM448) = 800 mV
          n : V(X448.nVCR1) = 800 mV
          v = 0 V
          i = 0 A
        pwr = 0 W

Instance: X449.vISample of MTJT
Model: vsource
Primitive: vsource
          p : V(NM449) = 800 mV
          n : V(X449.nVCR1) = 800 mV
          v = 0 V
          i = 0 A
        pwr = 0 W

Instance: X450.vISample of MTJT
Model: vsource
Primitive: vsource
          p : V(NM450) = 800 mV
          n : V(X450.nVCR1) = 800 mV
          v = 0 V
          i = 0 A
        pwr = 0 W

Instance: X451.vISample of MTJT
Model: vsource
Primitive: vsource
          p : V(NM451) = 800 mV
          n : V(X451.nVCR1) = 800 mV
          v = 0 V
          i = 0 A
        pwr = 0 W

Instance: X452.vISample of MTJT
Model: vsource
Primitive: vsource
          p : V(NM452) = 800 mV
          n : V(X452.nVCR1) = 800 mV
          v = 0 V
          i = 0 A
        pwr = 0 W

Instance: X453.vISample of MTJT
Model: vsource
Primitive: vsource
          p : V(NM453) = 800 mV
          n : V(X453.nVCR1) = 800 mV
          v = 0 V
          i = 0 A
        pwr = 0 W

Instance: X454.vISample of MTJT
Model: vsource
Primitive: vsource
          p : V(NM454) = 800 mV
          n : V(X454.nVCR1) = 800 mV
          v = 0 V
          i = 0 A
        pwr = 0 W

Instance: X455.vISample of MTJT
Model: vsource
Primitive: vsource
          p : V(NM455) = 800 mV
          n : V(X455.nVCR1) = 800 mV
          v = 0 V
          i = 0 A
        pwr = 0 W

Instance: X456.vISample of MTJT
Model: vsource
Primitive: vsource
          p : V(NM456) = 800 mV
          n : V(X456.nVCR1) = 800 mV
          v = 0 V
          i = 0 A
        pwr = 0 W

Instance: X457.vISample of MTJT
Model: vsource
Primitive: vsource
          p : V(NM457) = 800 mV
          n : V(X457.nVCR1) = 800 mV
          v = 0 V
          i = 0 A
        pwr = 0 W

Instance: X458.vISample of MTJT
Model: vsource
Primitive: vsource
          p : V(NM458) = 800 mV
          n : V(X458.nVCR1) = 800 mV
          v = 0 V
          i = 0 A
        pwr = 0 W

Instance: X459.vISample of MTJT
Model: vsource
Primitive: vsource
          p : V(NM459) = 800 mV
          n : V(X459.nVCR1) = 800 mV
          v = 0 V
          i = 0 A
        pwr = 0 W

Instance: X460.vISample of MTJT
Model: vsource
Primitive: vsource
          p : V(NM460) = 800 mV
          n : V(X460.nVCR1) = 800 mV
          v = 0 V
          i = 0 A
        pwr = 0 W

Instance: X461.vISample of MTJT
Model: vsource
Primitive: vsource
          p : V(NM461) = 800 mV
          n : V(X461.nVCR1) = 800 mV
          v = 0 V
          i = 0 A
        pwr = 0 W

Instance: X462.vISample of MTJT
Model: vsource
Primitive: vsource
          p : V(NM462) = 800 mV
          n : V(X462.nVCR1) = 800 mV
          v = 0 V
          i = 0 A
        pwr = 0 W

Instance: X463.vISample of MTJT
Model: vsource
Primitive: vsource
          p : V(NM463) = 800 mV
          n : V(X463.nVCR1) = 800 mV
          v = 0 V
          i = 0 A
        pwr = 0 W

Instance: X464.vISample of MTJT
Model: vsource
Primitive: vsource
          p : V(NM464) = 800 mV
          n : V(X464.nVCR1) = 800 mV
          v = 0 V
          i = 0 A
        pwr = 0 W

Instance: X465.vISample of MTJT
Model: vsource
Primitive: vsource
          p : V(NM465) = 800 mV
          n : V(X465.nVCR1) = 800 mV
          v = 0 V
          i = 0 A
        pwr = 0 W

Instance: X466.vISample of MTJT
Model: vsource
Primitive: vsource
          p : V(NM466) = 800 mV
          n : V(X466.nVCR1) = 800 mV
          v = 0 V
          i = 0 A
        pwr = 0 W

Instance: X467.vISample of MTJT
Model: vsource
Primitive: vsource
          p : V(NM467) = 800 mV
          n : V(X467.nVCR1) = 800 mV
          v = 0 V
          i = 0 A
        pwr = 0 W

Instance: X468.vISample of MTJT
Model: vsource
Primitive: vsource
          p : V(NM468) = 800 mV
          n : V(X468.nVCR1) = 800 mV
          v = 0 V
          i = 0 A
        pwr = 0 W

Instance: X469.vISample of MTJT
Model: vsource
Primitive: vsource
          p : V(NM469) = 800 mV
          n : V(X469.nVCR1) = 800 mV
          v = 0 V
          i = 0 A
        pwr = 0 W

Instance: X470.vISample of MTJT
Model: vsource
Primitive: vsource
          p : V(NM470) = 800 mV
          n : V(X470.nVCR1) = 800 mV
          v = 0 V
          i = 0 A
        pwr = 0 W

Instance: X471.vISample of MTJT
Model: vsource
Primitive: vsource
          p : V(NM471) = 800 mV
          n : V(X471.nVCR1) = 800 mV
          v = 0 V
          i = 0 A
        pwr = 0 W

Instance: X472.vISample of MTJT
Model: vsource
Primitive: vsource
          p : V(NM472) = 800 mV
          n : V(X472.nVCR1) = 800 mV
          v = 0 V
          i = 0 A
        pwr = 0 W

Instance: X473.vISample of MTJT
Model: vsource
Primitive: vsource
          p : V(NM473) = 800 mV
          n : V(X473.nVCR1) = 800 mV
          v = 0 V
          i = 0 A
        pwr = 0 W

Instance: X474.vISample of MTJT
Model: vsource
Primitive: vsource
          p : V(NM474) = 800 mV
          n : V(X474.nVCR1) = 800 mV
          v = 0 V
          i = 0 A
        pwr = 0 W

Instance: X475.vISample of MTJT
Model: vsource
Primitive: vsource
          p : V(NM475) = 800 mV
          n : V(X475.nVCR1) = 800 mV
          v = 0 V
          i = 0 A
        pwr = 0 W

Instance: X476.vISample of MTJT
Model: vsource
Primitive: vsource
          p : V(NM476) = 800 mV
          n : V(X476.nVCR1) = 800 mV
          v = 0 V
          i = 0 A
        pwr = 0 W

Instance: X477.vISample of MTJT
Model: vsource
Primitive: vsource
          p : V(NM477) = 800 mV
          n : V(X477.nVCR1) = 800 mV
          v = 0 V
          i = 0 A
        pwr = 0 W

Instance: X478.vISample of MTJT
Model: vsource
Primitive: vsource
          p : V(NM478) = 800 mV
          n : V(X478.nVCR1) = 800 mV
          v = 0 V
          i = 0 A
        pwr = 0 W

Instance: X479.vISample of MTJT
Model: vsource
Primitive: vsource
          p : V(NM479) = 800 mV
          n : V(X479.nVCR1) = 800 mV
          v = 0 V
          i = 0 A
        pwr = 0 W

Instance: X480.vISample of MTJT
Model: vsource
Primitive: vsource
          p : V(NM480) = 800 mV
          n : V(X480.nVCR1) = 800 mV
          v = 0 V
          i = 0 A
        pwr = 0 W

Instance: X481.vISample of MTJT
Model: vsource
Primitive: vsource
          p : V(NM481) = 800 mV
          n : V(X481.nVCR1) = 800 mV
          v = 0 V
          i = 0 A
        pwr = 0 W

Instance: X482.vISample of MTJT
Model: vsource
Primitive: vsource
          p : V(NM482) = 800 mV
          n : V(X482.nVCR1) = 800 mV
          v = 0 V
          i = 0 A
        pwr = 0 W

Instance: X483.vISample of MTJT
Model: vsource
Primitive: vsource
          p : V(NM483) = 800 mV
          n : V(X483.nVCR1) = 800 mV
          v = 0 V
          i = 0 A
        pwr = 0 W

Instance: X484.vISample of MTJT
Model: vsource
Primitive: vsource
          p : V(NM484) = 800 mV
          n : V(X484.nVCR1) = 800 mV
          v = 0 V
          i = 0 A
        pwr = 0 W

Instance: X485.vISample of MTJT
Model: vsource
Primitive: vsource
          p : V(NM485) = 800 mV
          n : V(X485.nVCR1) = 800 mV
          v = 0 V
          i = 0 A
        pwr = 0 W

Instance: X486.vISample of MTJT
Model: vsource
Primitive: vsource
          p : V(NM486) = 800 mV
          n : V(X486.nVCR1) = 800 mV
          v = 0 V
          i = 0 A
        pwr = 0 W

Instance: X487.vISample of MTJT
Model: vsource
Primitive: vsource
          p : V(NM487) = 800 mV
          n : V(X487.nVCR1) = 800 mV
          v = 0 V
          i = 0 A
        pwr = 0 W

Instance: X488.vISample of MTJT
Model: vsource
Primitive: vsource
          p : V(NM488) = 800 mV
          n : V(X488.nVCR1) = 800 mV
          v = 0 V
          i = 0 A
        pwr = 0 W

Instance: X489.vISample of MTJT
Model: vsource
Primitive: vsource
          p : V(NM489) = 800 mV
          n : V(X489.nVCR1) = 800 mV
          v = 0 V
          i = 0 A
        pwr = 0 W

Instance: X490.vISample of MTJT
Model: vsource
Primitive: vsource
          p : V(NM490) = 800 mV
          n : V(X490.nVCR1) = 800 mV
          v = 0 V
          i = 0 A
        pwr = 0 W

Instance: X491.vISample of MTJT
Model: vsource
Primitive: vsource
          p : V(NM491) = 800 mV
          n : V(X491.nVCR1) = 800 mV
          v = 0 V
          i = 0 A
        pwr = 0 W

Instance: X492.vISample of MTJT
Model: vsource
Primitive: vsource
          p : V(NM492) = 800 mV
          n : V(X492.nVCR1) = 800 mV
          v = 0 V
          i = 0 A
        pwr = 0 W

Instance: X493.vISample of MTJT
Model: vsource
Primitive: vsource
          p : V(NM493) = 800 mV
          n : V(X493.nVCR1) = 800 mV
          v = 0 V
          i = 0 A
        pwr = 0 W

Instance: X494.vISample of MTJT
Model: vsource
Primitive: vsource
          p : V(NM494) = 800 mV
          n : V(X494.nVCR1) = 800 mV
          v = 0 V
          i = 0 A
        pwr = 0 W

Instance: X495.vISample of MTJT
Model: vsource
Primitive: vsource
          p : V(NM495) = 800 mV
          n : V(X495.nVCR1) = 800 mV
          v = 0 V
          i = 0 A
        pwr = 0 W

Instance: X496.vISample of MTJT
Model: vsource
Primitive: vsource
          p : V(NM496) = 800 mV
          n : V(X496.nVCR1) = 800 mV
          v = 0 V
          i = 0 A
        pwr = 0 W

Instance: X497.vISample of MTJT
Model: vsource
Primitive: vsource
          p : V(NM497) = 800 mV
          n : V(X497.nVCR1) = 800 mV
          v = 0 V
          i = 0 A
        pwr = 0 W

Instance: X498.vISample of MTJT
Model: vsource
Primitive: vsource
          p : V(NM498) = 800 mV
          n : V(X498.nVCR1) = 800 mV
          v = 0 V
          i = 0 A
        pwr = 0 W

Instance: X499.vISample of MTJT
Model: vsource
Primitive: vsource
          p : V(NM499) = 800 mV
          n : V(X499.nVCR1) = 800 mV
          v = 0 V
          i = 0 A
        pwr = 0 W

Instance: X500.vISample of MTJT
Model: vsource
Primitive: vsource
          p : V(NM500) = 800 mV
          n : V(X500.nVCR1) = 800 mV
          v = 0 V
          i = 0 A
        pwr = 0 W

Instance: X501.vISample of MTJT
Model: vsource
Primitive: vsource
          p : V(NM501) = 800 mV
          n : V(X501.nVCR1) = 800 mV
          v = 0 V
          i = 0 A
        pwr = 0 W

Instance: X502.vISample of MTJT
Model: vsource
Primitive: vsource
          p : V(NM502) = 800 mV
          n : V(X502.nVCR1) = 800 mV
          v = 0 V
          i = 0 A
        pwr = 0 W

Instance: X503.vISample of MTJT
Model: vsource
Primitive: vsource
          p : V(NM503) = 800 mV
          n : V(X503.nVCR1) = 800 mV
          v = 0 V
          i = 0 A
        pwr = 0 W

Instance: X504.vISample of MTJT
Model: vsource
Primitive: vsource
          p : V(NM504) = 800 mV
          n : V(X504.nVCR1) = 800 mV
          v = 0 V
          i = 0 A
        pwr = 0 W

Instance: X505.vISample of MTJT
Model: vsource
Primitive: vsource
          p : V(NM505) = 800 mV
          n : V(X505.nVCR1) = 800 mV
          v = 0 V
          i = 0 A
        pwr = 0 W

Instance: X506.vISample of MTJT
Model: vsource
Primitive: vsource
          p : V(NM506) = 800 mV
          n : V(X506.nVCR1) = 800 mV
          v = 0 V
          i = 0 A
        pwr = 0 W

Instance: X507.vISample of MTJT
Model: vsource
Primitive: vsource
          p : V(NM507) = 800 mV
          n : V(X507.nVCR1) = 800 mV
          v = 0 V
          i = 0 A
        pwr = 0 W

Instance: X508.vISample of MTJT
Model: vsource
Primitive: vsource
          p : V(NM508) = 800 mV
          n : V(X508.nVCR1) = 800 mV
          v = 0 V
          i = 0 A
        pwr = 0 W

Instance: X509.vISample of MTJT
Model: vsource
Primitive: vsource
          p : V(NM509) = 800 mV
          n : V(X509.nVCR1) = 800 mV
          v = 0 V
          i = 0 A
        pwr = 0 W

Instance: X510.vISample of MTJT
Model: vsource
Primitive: vsource
          p : V(NM510) = 800 mV
          n : V(X510.nVCR1) = 800 mV
          v = 0 V
          i = 0 A
        pwr = 0 W

Instance: X511.vISample of MTJT
Model: vsource
Primitive: vsource
          p : V(NM511) = 800 mV
          n : V(X511.nVCR1) = 800 mV
          v = 0 V
          i = 0 A
        pwr = 0 W

Instance: X512.vISample of MTJT
Model: vsource
Primitive: vsource
          p : V(NM512) = 800 mV
          n : V(X512.nVCR1) = 800 mV
          v = 0 V
          i = 0 A
        pwr = 0 W

Maximum and minimum parameter values for vsource: 
            max v = 1.6 V on Vvdd
            min v = 0 V on Vtest1
            max i = 0 A on Vtest1
            min i = -80 uA on Vbl1
          max pwr = 0 W on Vtest1
          min pwr = -64 uW on Vbl1


Total Power Dissipation = 512 uW.


Convergence achieved in 2 iterations.
DC simulation time: CPU = 1.31579 s, elapsed = 1.34327 s.
Total time required for dc analysis `LeakStat': CPU = 1.31627 s, elapsed = 1.34376 s.
Time accumulated: CPU = 398.523 s (6m  38.5s), elapsed = 400.461 s (6m  40.5s).
Peak resident memory used = 158 Mbytes.


Aggregate audit (4:57:43 PM, Thur Mar 18, 2021):
Time used: CPU = 399 s (6m  38.6s), elapsed = 401 s (6m  40.6s), util. = 99.5%.
Time spent in licensing: elapsed = 26.1 ms.
Peak memory used = 158 Mbytes.
Simulation started at: 4:51:02 PM, Thur Mar 18, 2021, ended at: 4:57:43 PM, Thur Mar 18, 2021, with elapsed time (wall clock): 401 s (6m  40.6s).
spectre completes with 0 errors, 1 warning, and 385 notices.
