
Spectre (R) Circuit Simulator
Version 16.1.0.673.isr14 64bit -- 30 Mar 2018
Copyright (C) 1989-2018 Cadence Design Systems, Inc. All rights reserved worldwide. Cadence and Spectre are registered trademarks of Cadence Design Systems, Inc. All others are the property of their respective holders.

Includes RSA BSAFE(R) Cryptographic or Security Protocol Software from RSA Security, Inc.

User: brunozimmer   Host: itacolomi.lapsi   HostID: 7F0100   PID: 25159
Memory  available: 9.2244 GB  physical: 33.7036 GB
Linux   : CentOS Linux release 7.9.2009 (Core)
CPU Type: Intel(R) Xeon(R) CPU E3-1220 V2 @ 3.10GHz
All processors running at 2513.5 MHz
        Socket: Processors
        0:       0,  1,  2,  3
        
System load averages (1min, 5min, 15min) : 0.0 %, 1.2 %, 7.0 %


Simulating `mdl' on itacolomi.lapsi at 6:49:14 PM, Fri Feb 26, 2021 (process id: 25159).
Current working directory: /home/brunozimmer/Documentos/ComparacaoMemorias/1MTJ_HF/512
Command line:
    /tools/cadence/SPECTRE161/tools/bin/spectre -64 mdl

Loading /tools/cadence/SPECTRE161/tools.lnx86/cmi/lib/64bit/5.0/libinfineon_sh.so ...
Loading /tools/cadence/SPECTRE161/tools.lnx86/cmi/lib/64bit/5.0/libphilips_o_sh.so ...
Loading /tools/cadence/SPECTRE161/tools.lnx86/cmi/lib/64bit/5.0/libphilips_sh.so ...
Loading /tools/cadence/SPECTRE161/tools.lnx86/cmi/lib/64bit/5.0/libsparam_sh.so ...
Loading /tools/cadence/SPECTRE161/tools.lnx86/cmi/lib/64bit/5.0/libstmodels_sh.so ...

Error found by spectre.
    ERROR (CMI-2011): Unable to open input file `mdl'.
        No such file or directory.

Time for parsing: CPU = 92.223 ms, elapsed = 134.023 ms.
Time accumulated: CPU = 119.337 ms, elapsed = 134.032 ms.
Peak resident memory used = 43.3 Mbytes.

~~~~~~~~~~~~~~~~~~~~~~
Pre-Simulation Summary
~~~~~~~~~~~~~~~~~~~~~~
~~~~~~~~~~~~~~~~~~~~~~

Aggregate audit (6:49:14 PM, Fri Feb 26, 2021):
Time used: CPU = 121 ms, elapsed = 136 ms, util. = 89.3%.
Time spent in licensing: elapsed = 32.9 ms, percentage of total = 24.2%.
Peak memory used = 44.6 Mbytes.
Simulation started at: 6:49:14 PM, Fri Feb 26, 2021, ended at: 6:49:14 PM, Fri Feb 26, 2021, with elapsed time (wall clock): 136 ms.
spectre completes with 1 error, 0 warnings, and 0 notices.
spectre terminated prematurely due to fatal error.
