
Spectre (R) Circuit Simulator
Version 16.1.0.673.isr14 64bit -- 30 Mar 2018
Copyright (C) 1989-2018 Cadence Design Systems, Inc. All rights reserved worldwide. Cadence and Spectre are registered trademarks of Cadence Design Systems, Inc. All others are the property of their respective holders.

Includes RSA BSAFE(R) Cryptographic or Security Protocol Software from RSA Security, Inc.

User: brunozimmer   Host: itacolomi.lapsi   HostID: 7F0100   PID: 14290
Memory  available: 25.6422 GB  physical: 33.7036 GB
Linux   : CentOS Linux release 7.9.2009 (Core)
CPU Type: Intel(R) Xeon(R) CPU E3-1220 V2 @ 3.10GHz
        Socket: Processors [Frequency]
        0:       0 [2755.8],  1 [2798.0],  2 [2786.3],  3 [2799.5]
        
System load averages (1min, 5min, 15min) : 5.5 %, 9.5 %, 8.0 %


Simulating `Cell.scs' on itacolomi.lapsi at 12:48:57 PM, Sun Feb 7, 2021 (process id: 14290).
Current working directory: /home/brunozimmer/Documentos/ComparacaoMemorias/1MTJ_TG/128Bits
Command line:
    /tools/cadence/SPECTRE161/tools.lnx86/bin/spectre -64 =mdl  \
        Results.mdl Cell.scs

Loading /tools/cadence/SPECTRE161/tools.lnx86/cmi/lib/64bit/5.0/libinfineon_sh.so ...
Loading /tools/cadence/SPECTRE161/tools.lnx86/cmi/lib/64bit/5.0/libphilips_o_sh.so ...
Loading /tools/cadence/SPECTRE161/tools.lnx86/cmi/lib/64bit/5.0/libphilips_sh.so ...
Loading /tools/cadence/SPECTRE161/tools.lnx86/cmi/lib/64bit/5.0/libsparam_sh.so ...
Loading /tools/cadence/SPECTRE161/tools.lnx86/cmi/lib/64bit/5.0/libstmodels_sh.so ...
Loading /tools/cadence/SPECTRE161/tools.lnx86/spectre/lib/64bit/mdl/libSpectreEH_sh.so ...

Warning from spectre.
    WARNING (MDL-1452): line 1, column 1: syntax error before or at: *
            unrecognised statement.

Reading file:  /home/brunozimmer/Documentos/ComparacaoMemorias/1MTJ_TG/128Bits/Cell.scs
Reading file:  /tools/cadence/SPECTRE161/tools.lnx86/spectre/etc/configs/mapsubckt.cfg
Reading file:  /tools/cadence/SPECTRE161/tools.lnx86/spectre/etc/configs/spectre.cfg
Reading file:  /home/brunozimmer/Documentos/ComparacaoMemorias/1MTJ_TG/128Bits/45nm_LP.pm
Reading file:  /home/brunozimmer/Documentos/ComparacaoMemorias/1MTJ_TG/128Bits/MTJT.spi
Reading file:  /home/brunozimmer/Documentos/ComparacaoMemorias/1MTJ_TG/128Bits/TRANSGATE.spi
Time for NDB Parsing: CPU = 195.508 ms, elapsed = 218.192 ms.
Time accumulated: CPU = 217.836 ms, elapsed = 218.202 ms.
Peak resident memory used = 64.1 Mbytes.

Reading link:  /tools/cadence/SPECTRE161/tools.lnx86/spectre/etc/ahdl/discipline.h
Reading file:  /tools/cadence/SPECTRE161/tools.lnx86/spectre/etc/ahdl/disciplines.vams
Reading link:  /tools/cadence/SPECTRE161/tools.lnx86/spectre/etc/ahdl/constants.h
Reading file:  /tools/cadence/SPECTRE161/tools.lnx86/spectre/etc/ahdl/constants.vams
Existing shared object for module bsource_299dda is up to date.
Installed compiled interface for bsource_299dda.
Existing shared object for module bsource_c88c6a is up to date.
Installed compiled interface for bsource_c88c6a.
Existing shared object for module bsource_42ea24 is up to date.
Installed compiled interface for bsource_42ea24.
Existing shared object for module bsource_7b7e87 is up to date.
Installed compiled interface for bsource_7b7e87.
Existing shared object for module bsource_098211 is up to date.
Installed compiled interface for bsource_098211.
Existing shared object for module bsource_ad0f4a is up to date.
Installed compiled interface for bsource_ad0f4a.
Time for Elaboration: CPU = 44.596 ms, elapsed = 44.6811 ms.
Time accumulated: CPU = 262.557 ms, elapsed = 263.021 ms.
Peak resident memory used = 74.6 Mbytes.


Time for EDB Visiting: CPU = 41.376 ms, elapsed = 41.3849 ms.
Time accumulated: CPU = 304.098 ms, elapsed = 304.589 ms.
Peak resident memory used = 78.5 Mbytes.


Global user options:
             rawfmt = psfbin

Scoped user options:

Circuit inventory:
              nodes 1889
              bsim4 96    
     bsource_7b7e87 128   
     bsource_42ea24 128   
     bsource_299dda 128   
     bsource_098211 128   
     bsource_ad0f4a 128   
     bsource_c88c6a 128   
          capacitor 784   
           resistor 896   
               vccs 128   
               vcvs 512   
            vsource 305   

Analysis and control statement inventory:
               tran 1     

Output statements:
             .probe 0     
           .measure 0     
               save 0     

Time for parsing: CPU = 15.789 ms, elapsed = 54.7729 ms.
Time accumulated: CPU = 320.042 ms, elapsed = 359.531 ms.
Peak resident memory used = 82.4 Mbytes.

~~~~~~~~~~~~~~~~~~~~~~
Pre-Simulation Summary
~~~~~~~~~~~~~~~~~~~~~~
~~~~~~~~~~~~~~~~~~~~~~

+++++++++++++++
TpRead = (0.1n)
+++++++++++++++

***************************************************************
Transient Analysis `TmpRead-000_TmpRead': time = (0 s -> 10 ns)
***************************************************************
Finding DC approximate solution failed. Try again with try_fast_op set to no.

Notice from spectre during IC analysis, during transient analysis `TmpRead-000_TmpRead', during task `MDLControl'.
    Bad pivoting is found during DC analysis. Option dc_pivot_check=yes is recommended for possible improvement of convergence.

DC simulation time: CPU = 91.889 ms, elapsed = 91.934 ms.

Notice from spectre during transient analysis `TmpRead-000_TmpRead', during task `MDLControl'.
    No outputs were found. Loosening output filter criterion to `allpub'.


Opening the PSF file Cell.raw/TmpRead-000_TmpRead.tran.tran ...
Important parameter values:
    start = 0 s
    outputstart = 0 s
    stop = 10 ns
    step = 10 ps
    maxstep = 200 ps
    ic = all
    useprevic = no
    skipdc = no
    reltol = 1e-03
    abstol(V) = 1 uV
    abstol(I) = 1 pA
    temp = 27 C
    tnom = 27 C
    tempeffects = all
    errpreset = moderate
    method = traponly
    lteratio = 3.5
    relref = sigglobal
    cmin = 0 F
    gmin = 1 pS


Output and IC/nodeset summary:
                 save   305     (current)
                 save   1889    (voltage)

...

Notice from spectre at time = 574.228 ps during transient analysis `TmpRead-000_TmpRead', during task `MDLControl'.
    Found trapezoidal ringing on node X128.nFeedback.

.....

Notice from spectre at time = 774.228 ps during transient analysis `TmpRead-000_TmpRead', during task `MDLControl'.
    Found trapezoidal ringing on node X128.nFeedback.

.......

Notice from spectre at time = 899 ps during transient analysis `TmpRead-000_TmpRead', during task `MDLControl'.
    Found trapezoidal ringing on node X128.nFeedback.

........

Notice from spectre at time = 945.734 ps during transient analysis `TmpRead-000_TmpRead', during task `MDLControl'.
    Found trapezoidal ringing on node X146.M_i_2:int_b.

........9

Notice from spectre at time = 969.468 ps during transient analysis `TmpRead-000_TmpRead', during task `MDLControl'.
    Found trapezoidal ringing on node X146.M_i_2:int_b.
        Further occurrences of this notice will be suppressed.

........9........8........7........6........5........4........3........2........1........0
Number of accepted tran steps =             999

Notice from spectre during transient analysis `TmpRead-000_TmpRead', during task `MDLControl'.
    Trapezoidal ringing is detected during tran analysis.
        Please use method=trap for better results and performance.


Maximum value achieved for any signal of each quantity: 
V: V(X128.nBiStable) = 10 V
I: I(X56.eBiStable:p) = 19.65 A
If your circuit contains signals of the same quantity that are vastly different in size (such as high voltage circuitry combined with low voltage control circuitry), you should consider specifying global option `bin_relref=yes'.

~~~~~~~~~~~~~~~~~~~~~~~~~~~~~~~~~
Post-Transient Simulation Summary
~~~~~~~~~~~~~~~~~~~~~~~~~~~~~~~~~
   -   To further speed up simulation, consider
          add ++aps on command line
~~~~~~~~~~~~~~~~~~~~~~~~~~~~~~~~~


During simulation, the CPU load for active processors is :
        Spectre  0 (5.9 %)       1 (90.2 %)      2 (2.4 %)       3 (7.1 %)
        Other   
Initial condition solution time: CPU = 91.964 ms, elapsed = 92.016 ms.
Intrinsic tran analysis time:    CPU = 3.57281 s, elapsed = 3.59798 s.
Total time required for tran analysis `TmpRead-000_TmpRead': CPU = 3.67891 s, elapsed = 3.70422 s.
Time accumulated: CPU = 4.0556 s, elapsed = 4.1557 s.
Peak resident memory used = 93.2 Mbytes.


Notice from spectre during task `MDLControl'.
    479 notices suppressed.


Value of Exported Variables in this iteration of the Search loop ( iteration = 1 ) :
CurBL=0.000411272
TpRd=2e-10

+++++++++++++++
TpRead = (0.3n)
+++++++++++++++

***************************************************************
Transient Analysis `TmpRead-000_TmpRead': time = (0 s -> 10 ns)
***************************************************************
Finding DC approximate solution failed. Try again with try_fast_op set to no.

Notice from spectre during IC analysis, during transient analysis `TmpRead-000_TmpRead', during task `MDLControl'.
    Bad pivoting is found during DC analysis. Option dc_pivot_check=yes is recommended for possible improvement of convergence.

DC simulation time: CPU = 91.824 ms, elapsed = 91.8601 ms.

Notice from spectre during transient analysis `TmpRead-000_TmpRead', during task `MDLControl'.
    No outputs were found. Loosening output filter criterion to `allpub'.


Opening the PSF file Cell.raw/TmpRead-000_TmpRead.tran.tran ...
Important parameter values:
    start = 0 s
    outputstart = 0 s
    stop = 10 ns
    step = 10 ps
    maxstep = 200 ps
    ic = all
    useprevic = no
    skipdc = no
    reltol = 1e-03
    abstol(V) = 1 uV
    abstol(I) = 1 pA
    temp = 27 C
    tnom = 27 C
    tempeffects = all
    errpreset = moderate
    method = traponly
    lteratio = 3.5
    relref = sigglobal
    cmin = 0 F
    gmin = 1 pS


Output and IC/nodeset summary:
                 save   305     (current)
                 save   1889    (voltage)

...

Notice from spectre at time = 574.228 ps during transient analysis `TmpRead-000_TmpRead', during task `MDLControl'.
    Found trapezoidal ringing on node X128.nFeedback.

.....

Notice from spectre at time = 774.228 ps during transient analysis `TmpRead-000_TmpRead', during task `MDLControl'.
    Found trapezoidal ringing on node X128.nFeedback.

.......

Notice from spectre at time = 899 ps during transient analysis `TmpRead-000_TmpRead', during task `MDLControl'.
    Found trapezoidal ringing on node X128.nFeedback.

........

Notice from spectre at time = 945.734 ps during transient analysis `TmpRead-000_TmpRead', during task `MDLControl'.
    Found trapezoidal ringing on node X146.M_i_2:int_b.

........9

Notice from spectre at time = 969.468 ps during transient analysis `TmpRead-000_TmpRead', during task `MDLControl'.
    Found trapezoidal ringing on node X146.M_i_2:int_b.
        Further occurrences of this notice will be suppressed.

........9........8........7........6........5........4........3........2........1........0
Number of accepted tran steps =             996

Notice from spectre during transient analysis `TmpRead-000_TmpRead', during task `MDLControl'.
    Trapezoidal ringing is detected during tran analysis.
        Please use method=trap for better results and performance.


Maximum value achieved for any signal of each quantity: 
V: V(X128.nBiStable) = 10 V
I: I(X56.eBiStable:p) = 19.65 A
If your circuit contains signals of the same quantity that are vastly different in size (such as high voltage circuitry combined with low voltage control circuitry), you should consider specifying global option `bin_relref=yes'.

~~~~~~~~~~~~~~~~~~~~~~~~~~~~~~~~~
Post-Transient Simulation Summary
~~~~~~~~~~~~~~~~~~~~~~~~~~~~~~~~~
   -   To further speed up simulation, consider
          add ++aps on command line
~~~~~~~~~~~~~~~~~~~~~~~~~~~~~~~~~


During simulation, the CPU load for active processors is :
        Spectre  0 (4.3 %)       1 (94.5 %)      2 (2.2 %)       3 (4.5 %)
        Other   
Initial condition solution time: CPU = 91.883 ms, elapsed = 91.929 ms.
Intrinsic tran analysis time:    CPU = 3.59975 s, elapsed = 3.62692 s.
Total time required for tran analysis `TmpRead-000_TmpRead': CPU = 3.70282 s, elapsed = 3.73014 s.
Time accumulated: CPU = 7.79658 s, elapsed = 7.92405 s.
Peak resident memory used = 95.4 Mbytes.


Notice from spectre during task `MDLControl'.
    465 notices suppressed.


Value of Exported Variables in this iteration of the Search loop ( iteration = 2 ) :
CurBL=1.03513e-05
TpRd=0

++++++++++++++
TpRead = 2e-10
++++++++++++++

***************************************************************
Transient Analysis `TmpRead-000_TmpRead': time = (0 s -> 10 ns)
***************************************************************
Finding DC approximate solution failed. Try again with try_fast_op set to no.

Notice from spectre during IC analysis, during transient analysis `TmpRead-000_TmpRead', during task `MDLControl'.
    Bad pivoting is found during DC analysis. Option dc_pivot_check=yes is recommended for possible improvement of convergence.

DC simulation time: CPU = 93.313 ms, elapsed = 93.354 ms.

Notice from spectre during transient analysis `TmpRead-000_TmpRead', during task `MDLControl'.
    No outputs were found. Loosening output filter criterion to `allpub'.


Opening the PSF file Cell.raw/TmpRead-000_TmpRead.tran.tran ...
Important parameter values:
    start = 0 s
    outputstart = 0 s
    stop = 10 ns
    step = 10 ps
    maxstep = 200 ps
    ic = all
    useprevic = no
    skipdc = no
    reltol = 1e-03
    abstol(V) = 1 uV
    abstol(I) = 1 pA
    temp = 27 C
    tnom = 27 C
    tempeffects = all
    errpreset = moderate
    method = traponly
    lteratio = 3.5
    relref = sigglobal
    cmin = 0 F
    gmin = 1 pS


Output and IC/nodeset summary:
                 save   305     (current)
                 save   1889    (voltage)

...

Notice from spectre at time = 574.228 ps during transient analysis `TmpRead-000_TmpRead', during task `MDLControl'.
    Found trapezoidal ringing on node X128.nFeedback.

.....

Notice from spectre at time = 774.228 ps during transient analysis `TmpRead-000_TmpRead', during task `MDLControl'.
    Found trapezoidal ringing on node X128.nFeedback.

.......

Notice from spectre at time = 899 ps during transient analysis `TmpRead-000_TmpRead', during task `MDLControl'.
    Found trapezoidal ringing on node X128.nFeedback.

........

Notice from spectre at time = 945.734 ps during transient analysis `TmpRead-000_TmpRead', during task `MDLControl'.
    Found trapezoidal ringing on node X146.M_i_2:int_b.

........9

Notice from spectre at time = 969.468 ps during transient analysis `TmpRead-000_TmpRead', during task `MDLControl'.
    Found trapezoidal ringing on node X146.M_i_2:int_b.
        Further occurrences of this notice will be suppressed.

........9........8........7........6........5........4........3........2........1........0
Number of accepted tran steps =             1001

Notice from spectre during transient analysis `TmpRead-000_TmpRead', during task `MDLControl'.
    Trapezoidal ringing is detected during tran analysis.
        Please use method=trap for better results and performance.


Maximum value achieved for any signal of each quantity: 
V: V(X128.nBiStable) = 10 V
I: I(X56.eBiStable:p) = 19.65 A
If your circuit contains signals of the same quantity that are vastly different in size (such as high voltage circuitry combined with low voltage control circuitry), you should consider specifying global option `bin_relref=yes'.

~~~~~~~~~~~~~~~~~~~~~~~~~~~~~~~~~
Post-Transient Simulation Summary
~~~~~~~~~~~~~~~~~~~~~~~~~~~~~~~~~
   -   To further speed up simulation, consider
          add ++aps on command line
~~~~~~~~~~~~~~~~~~~~~~~~~~~~~~~~~


During simulation, the CPU load for active processors is :
        Spectre  0 (3.9 %)       1 (96.1 %)      2 (2.2 %)       3 (3.6 %)
        Other   
Initial condition solution time: CPU = 93.374 ms, elapsed = 93.4188 ms.
Intrinsic tran analysis time:    CPU = 3.58036 s, elapsed = 3.60681 s.
Total time required for tran analysis `TmpRead-000_TmpRead': CPU = 3.68461 s, elapsed = 3.71121 s.
Time accumulated: CPU = 11.5168 s, elapsed = 11.671 s.
Peak resident memory used = 95.4 Mbytes.


Notice from spectre during task `MDLControl'.
    489 notices suppressed.


Value of Exported Variables in this iteration of the Search loop ( iteration = 3 ) :
CurBL=0.000407007
TpRd=1e-10

++++++++++++++++
TpRead = 2.5e-10
++++++++++++++++

***************************************************************
Transient Analysis `TmpRead-000_TmpRead': time = (0 s -> 10 ns)
***************************************************************
Finding DC approximate solution failed. Try again with try_fast_op set to no.

Notice from spectre during IC analysis, during transient analysis `TmpRead-000_TmpRead', during task `MDLControl'.
    Bad pivoting is found during DC analysis. Option dc_pivot_check=yes is recommended for possible improvement of convergence.

DC simulation time: CPU = 92.612 ms, elapsed = 92.6511 ms.

Notice from spectre during transient analysis `TmpRead-000_TmpRead', during task `MDLControl'.
    No outputs were found. Loosening output filter criterion to `allpub'.


Opening the PSF file Cell.raw/TmpRead-000_TmpRead.tran.tran ...
Important parameter values:
    start = 0 s
    outputstart = 0 s
    stop = 10 ns
    step = 10 ps
    maxstep = 200 ps
    ic = all
    useprevic = no
    skipdc = no
    reltol = 1e-03
    abstol(V) = 1 uV
    abstol(I) = 1 pA
    temp = 27 C
    tnom = 27 C
    tempeffects = all
    errpreset = moderate
    method = traponly
    lteratio = 3.5
    relref = sigglobal
    cmin = 0 F
    gmin = 1 pS


Output and IC/nodeset summary:
                 save   305     (current)
                 save   1889    (voltage)

...

Notice from spectre at time = 574.228 ps during transient analysis `TmpRead-000_TmpRead', during task `MDLControl'.
    Found trapezoidal ringing on node X128.nFeedback.

.....

Notice from spectre at time = 774.228 ps during transient analysis `TmpRead-000_TmpRead', during task `MDLControl'.
    Found trapezoidal ringing on node X128.nFeedback.

.......

Notice from spectre at time = 899 ps during transient analysis `TmpRead-000_TmpRead', during task `MDLControl'.
    Found trapezoidal ringing on node X128.nFeedback.

........

Notice from spectre at time = 945.734 ps during transient analysis `TmpRead-000_TmpRead', during task `MDLControl'.
    Found trapezoidal ringing on node X146.M_i_2:int_b.

........9

Notice from spectre at time = 969.468 ps during transient analysis `TmpRead-000_TmpRead', during task `MDLControl'.
    Found trapezoidal ringing on node X146.M_i_2:int_b.
        Further occurrences of this notice will be suppressed.

........9........8........7........6........5........4........3........2........1........0
Number of accepted tran steps =             996

Notice from spectre during transient analysis `TmpRead-000_TmpRead', during task `MDLControl'.
    Trapezoidal ringing is detected during tran analysis.
        Please use method=trap for better results and performance.


Maximum value achieved for any signal of each quantity: 
V: V(X128.nBiStable) = 10 V
I: I(X56.eBiStable:p) = 19.65 A
If your circuit contains signals of the same quantity that are vastly different in size (such as high voltage circuitry combined with low voltage control circuitry), you should consider specifying global option `bin_relref=yes'.

~~~~~~~~~~~~~~~~~~~~~~~~~~~~~~~~~
Post-Transient Simulation Summary
~~~~~~~~~~~~~~~~~~~~~~~~~~~~~~~~~
   -   To further speed up simulation, consider
          add ++aps on command line
~~~~~~~~~~~~~~~~~~~~~~~~~~~~~~~~~


During simulation, the CPU load for active processors is :
        Spectre  0 (3.9 %)       1 (96.9 %)      2 (2.0 %)       3 (3.1 %)
        Other   
Initial condition solution time: CPU = 92.697 ms, elapsed = 92.741 ms.
Intrinsic tran analysis time:    CPU = 3.58825 s, elapsed = 3.60965 s.
Total time required for tran analysis `TmpRead-000_TmpRead': CPU = 3.69201 s, elapsed = 3.71356 s.
Time accumulated: CPU = 15.2443 s, elapsed = 15.42 s.
Peak resident memory used = 95.4 Mbytes.


Notice from spectre during task `MDLControl'.
    465 notices suppressed.


Value of Exported Variables in this iteration of the Search loop ( iteration = 4 ) :
CurBL=0.000405317
TpRd=5e-11

+++++++++++++++++
TpRead = 2.75e-10
+++++++++++++++++

***************************************************************
Transient Analysis `TmpRead-000_TmpRead': time = (0 s -> 10 ns)
***************************************************************
Finding DC approximate solution failed. Try again with try_fast_op set to no.

Notice from spectre during IC analysis, during transient analysis `TmpRead-000_TmpRead', during task `MDLControl'.
    Bad pivoting is found during DC analysis. Option dc_pivot_check=yes is recommended for possible improvement of convergence.

DC simulation time: CPU = 94.609 ms, elapsed = 94.6469 ms.

Notice from spectre during transient analysis `TmpRead-000_TmpRead', during task `MDLControl'.
    No outputs were found. Loosening output filter criterion to `allpub'.


Opening the PSF file Cell.raw/TmpRead-000_TmpRead.tran.tran ...
Important parameter values:
    start = 0 s
    outputstart = 0 s
    stop = 10 ns
    step = 10 ps
    maxstep = 200 ps
    ic = all
    useprevic = no
    skipdc = no
    reltol = 1e-03
    abstol(V) = 1 uV
    abstol(I) = 1 pA
    temp = 27 C
    tnom = 27 C
    tempeffects = all
    errpreset = moderate
    method = traponly
    lteratio = 3.5
    relref = sigglobal
    cmin = 0 F
    gmin = 1 pS


Output and IC/nodeset summary:
                 save   305     (current)
                 save   1889    (voltage)

...

Notice from spectre at time = 574.228 ps during transient analysis `TmpRead-000_TmpRead', during task `MDLControl'.
    Found trapezoidal ringing on node X128.nFeedback.

.....

Notice from spectre at time = 774.228 ps during transient analysis `TmpRead-000_TmpRead', during task `MDLControl'.
    Found trapezoidal ringing on node X128.nFeedback.

.......

Notice from spectre at time = 899 ps during transient analysis `TmpRead-000_TmpRead', during task `MDLControl'.
    Found trapezoidal ringing on node X128.nFeedback.

........

Notice from spectre at time = 945.734 ps during transient analysis `TmpRead-000_TmpRead', during task `MDLControl'.
    Found trapezoidal ringing on node X146.M_i_2:int_b.

........9

Notice from spectre at time = 969.468 ps during transient analysis `TmpRead-000_TmpRead', during task `MDLControl'.
    Found trapezoidal ringing on node X146.M_i_2:int_b.
        Further occurrences of this notice will be suppressed.

........9........8........7........6........5........4........3........2........1........0
Number of accepted tran steps =             996

Notice from spectre during transient analysis `TmpRead-000_TmpRead', during task `MDLControl'.
    Trapezoidal ringing is detected during tran analysis.
        Please use method=trap for better results and performance.


Maximum value achieved for any signal of each quantity: 
V: V(X128.nBiStable) = 10 V
I: I(X56.eBiStable:p) = 19.65 A
If your circuit contains signals of the same quantity that are vastly different in size (such as high voltage circuitry combined with low voltage control circuitry), you should consider specifying global option `bin_relref=yes'.

~~~~~~~~~~~~~~~~~~~~~~~~~~~~~~~~~
Post-Transient Simulation Summary
~~~~~~~~~~~~~~~~~~~~~~~~~~~~~~~~~
   -   To further speed up simulation, consider
          add ++aps on command line
~~~~~~~~~~~~~~~~~~~~~~~~~~~~~~~~~


During simulation, the CPU load for active processors is :
        Spectre  0 (3.4 %)       1 (97.4 %)      2 (2.4 %)       3 (2.8 %)
        Other   
Initial condition solution time: CPU = 94.671 ms, elapsed = 94.718 ms.
Intrinsic tran analysis time:    CPU = 3.5791 s, elapsed = 3.59882 s.
Total time required for tran analysis `TmpRead-000_TmpRead': CPU = 3.6846 s, elapsed = 3.70447 s.
Time accumulated: CPU = 18.9646 s, elapsed = 19.1602 s.
Peak resident memory used = 95.4 Mbytes.


Notice from spectre during task `MDLControl'.
    466 notices suppressed.


Value of Exported Variables in this iteration of the Search loop ( iteration = 5 ) :
CurBL=0.000318545
TpRd=2.5e-11

++++++++++++++++++
TpRead = 2.625e-10
++++++++++++++++++

***************************************************************
Transient Analysis `TmpRead-000_TmpRead': time = (0 s -> 10 ns)
***************************************************************
Finding DC approximate solution failed. Try again with try_fast_op set to no.

Notice from spectre during IC analysis, during transient analysis `TmpRead-000_TmpRead', during task `MDLControl'.
    Bad pivoting is found during DC analysis. Option dc_pivot_check=yes is recommended for possible improvement of convergence.

DC simulation time: CPU = 93.783 ms, elapsed = 93.8199 ms.

Notice from spectre during transient analysis `TmpRead-000_TmpRead', during task `MDLControl'.
    No outputs were found. Loosening output filter criterion to `allpub'.


Opening the PSF file Cell.raw/TmpRead-000_TmpRead.tran.tran ...
Important parameter values:
    start = 0 s
    outputstart = 0 s
    stop = 10 ns
    step = 10 ps
    maxstep = 200 ps
    ic = all
    useprevic = no
    skipdc = no
    reltol = 1e-03
    abstol(V) = 1 uV
    abstol(I) = 1 pA
    temp = 27 C
    tnom = 27 C
    tempeffects = all
    errpreset = moderate
    method = traponly
    lteratio = 3.5
    relref = sigglobal
    cmin = 0 F
    gmin = 1 pS


Output and IC/nodeset summary:
                 save   305     (current)
                 save   1889    (voltage)

...

Notice from spectre at time = 574.228 ps during transient analysis `TmpRead-000_TmpRead', during task `MDLControl'.
    Found trapezoidal ringing on node X128.nFeedback.

.....

Notice from spectre at time = 774.228 ps during transient analysis `TmpRead-000_TmpRead', during task `MDLControl'.
    Found trapezoidal ringing on node X128.nFeedback.

.......

Notice from spectre at time = 899 ps during transient analysis `TmpRead-000_TmpRead', during task `MDLControl'.
    Found trapezoidal ringing on node X128.nFeedback.

........

Notice from spectre at time = 945.734 ps during transient analysis `TmpRead-000_TmpRead', during task `MDLControl'.
    Found trapezoidal ringing on node X146.M_i_2:int_b.

........9

Notice from spectre at time = 969.468 ps during transient analysis `TmpRead-000_TmpRead', during task `MDLControl'.
    Found trapezoidal ringing on node X146.M_i_2:int_b.
        Further occurrences of this notice will be suppressed.

........9........8........7........6........5........4........3........2........1........0
Number of accepted tran steps =             996

Notice from spectre during transient analysis `TmpRead-000_TmpRead', during task `MDLControl'.
    Trapezoidal ringing is detected during tran analysis.
        Please use method=trap for better results and performance.


Maximum value achieved for any signal of each quantity: 
V: V(X128.nBiStable) = 10 V
I: I(X56.eBiStable:p) = 19.65 A
If your circuit contains signals of the same quantity that are vastly different in size (such as high voltage circuitry combined with low voltage control circuitry), you should consider specifying global option `bin_relref=yes'.

~~~~~~~~~~~~~~~~~~~~~~~~~~~~~~~~~
Post-Transient Simulation Summary
~~~~~~~~~~~~~~~~~~~~~~~~~~~~~~~~~
   -   To further speed up simulation, consider
          add ++aps on command line
~~~~~~~~~~~~~~~~~~~~~~~~~~~~~~~~~


During simulation, the CPU load for active processors is :
        Spectre  0 (3.2 %)       1 (97.7 %)      2 (2.2 %)       3 (2.8 %)
        Other   
Initial condition solution time: CPU = 93.843 ms, elapsed = 93.8859 ms.
Intrinsic tran analysis time:    CPU = 3.59017 s, elapsed = 3.62026 s.
Total time required for tran analysis `TmpRead-000_TmpRead': CPU = 3.69487 s, elapsed = 3.72511 s.
Time accumulated: CPU = 22.6952 s, elapsed = 22.9211 s.
Peak resident memory used = 95.4 Mbytes.


Notice from spectre during task `MDLControl'.
    466 notices suppressed.


Value of Exported Variables in this iteration of the Search loop ( iteration = 6 ) :
CurBL=0.000386301
TpRd=3.75e-11

+++++++++++++++++++
TpRead = 2.5625e-10
+++++++++++++++++++

***************************************************************
Transient Analysis `TmpRead-000_TmpRead': time = (0 s -> 10 ns)
***************************************************************
Finding DC approximate solution failed. Try again with try_fast_op set to no.

Notice from spectre during IC analysis, during transient analysis `TmpRead-000_TmpRead', during task `MDLControl'.
    Bad pivoting is found during DC analysis. Option dc_pivot_check=yes is recommended for possible improvement of convergence.

DC simulation time: CPU = 93.567 ms, elapsed = 93.6 ms.

Notice from spectre during transient analysis `TmpRead-000_TmpRead', during task `MDLControl'.
    No outputs were found. Loosening output filter criterion to `allpub'.


Opening the PSF file Cell.raw/TmpRead-000_TmpRead.tran.tran ...
Important parameter values:
    start = 0 s
    outputstart = 0 s
    stop = 10 ns
    step = 10 ps
    maxstep = 200 ps
    ic = all
    useprevic = no
    skipdc = no
    reltol = 1e-03
    abstol(V) = 1 uV
    abstol(I) = 1 pA
    temp = 27 C
    tnom = 27 C
    tempeffects = all
    errpreset = moderate
    method = traponly
    lteratio = 3.5
    relref = sigglobal
    cmin = 0 F
    gmin = 1 pS


Output and IC/nodeset summary:
                 save   305     (current)
                 save   1889    (voltage)

...

Notice from spectre at time = 574.228 ps during transient analysis `TmpRead-000_TmpRead', during task `MDLControl'.
    Found trapezoidal ringing on node X128.nFeedback.

.....

Notice from spectre at time = 774.228 ps during transient analysis `TmpRead-000_TmpRead', during task `MDLControl'.
    Found trapezoidal ringing on node X128.nFeedback.

.......

Notice from spectre at time = 899 ps during transient analysis `TmpRead-000_TmpRead', during task `MDLControl'.
    Found trapezoidal ringing on node X128.nFeedback.

........

Notice from spectre at time = 945.734 ps during transient analysis `TmpRead-000_TmpRead', during task `MDLControl'.
    Found trapezoidal ringing on node X146.M_i_2:int_b.

........9

Notice from spectre at time = 969.468 ps during transient analysis `TmpRead-000_TmpRead', during task `MDLControl'.
    Found trapezoidal ringing on node X146.M_i_2:int_b.
        Further occurrences of this notice will be suppressed.

........9........8........7........6........5........4........3........2........1........0
Number of accepted tran steps =             996

Notice from spectre during transient analysis `TmpRead-000_TmpRead', during task `MDLControl'.
    Trapezoidal ringing is detected during tran analysis.
        Please use method=trap for better results and performance.


Maximum value achieved for any signal of each quantity: 
V: V(X128.nBiStable) = 10 V
I: I(X56.eBiStable:p) = 19.65 A
If your circuit contains signals of the same quantity that are vastly different in size (such as high voltage circuitry combined with low voltage control circuitry), you should consider specifying global option `bin_relref=yes'.

~~~~~~~~~~~~~~~~~~~~~~~~~~~~~~~~~
Post-Transient Simulation Summary
~~~~~~~~~~~~~~~~~~~~~~~~~~~~~~~~~
   -   To further speed up simulation, consider
          add ++aps on command line
~~~~~~~~~~~~~~~~~~~~~~~~~~~~~~~~~


During simulation, the CPU load for active processors is :
        Spectre  0 (3.2 %)       1 (98.0 %)      2 (2.3 %)       3 (2.6 %)
        Other   
Initial condition solution time: CPU = 93.627 ms, elapsed = 93.668 ms.
Intrinsic tran analysis time:    CPU = 3.59898 s, elapsed = 3.61793 s.
Total time required for tran analysis `TmpRead-000_TmpRead': CPU = 3.70357 s, elapsed = 3.72267 s.
Time accumulated: CPU = 26.4343 s, elapsed = 26.6794 s.
Peak resident memory used = 95.4 Mbytes.


Notice from spectre during task `MDLControl'.
    465 notices suppressed.


Value of Exported Variables in this iteration of the Search loop ( iteration = 7 ) :
CurBL=0.000399926
TpRd=4.375e-11

++++++++++++++++++++
TpRead = 2.53125e-10
++++++++++++++++++++

***************************************************************
Transient Analysis `TmpRead-000_TmpRead': time = (0 s -> 10 ns)
***************************************************************
Finding DC approximate solution failed. Try again with try_fast_op set to no.

Notice from spectre during IC analysis, during transient analysis `TmpRead-000_TmpRead', during task `MDLControl'.
    Bad pivoting is found during DC analysis. Option dc_pivot_check=yes is recommended for possible improvement of convergence.

DC simulation time: CPU = 93.718 ms, elapsed = 93.7519 ms.

Notice from spectre during transient analysis `TmpRead-000_TmpRead', during task `MDLControl'.
    No outputs were found. Loosening output filter criterion to `allpub'.


Opening the PSF file Cell.raw/TmpRead-000_TmpRead.tran.tran ...
Important parameter values:
    start = 0 s
    outputstart = 0 s
    stop = 10 ns
    step = 10 ps
    maxstep = 200 ps
    ic = all
    useprevic = no
    skipdc = no
    reltol = 1e-03
    abstol(V) = 1 uV
    abstol(I) = 1 pA
    temp = 27 C
    tnom = 27 C
    tempeffects = all
    errpreset = moderate
    method = traponly
    lteratio = 3.5
    relref = sigglobal
    cmin = 0 F
    gmin = 1 pS


Output and IC/nodeset summary:
                 save   305     (current)
                 save   1889    (voltage)

...

Notice from spectre at time = 574.228 ps during transient analysis `TmpRead-000_TmpRead', during task `MDLControl'.
    Found trapezoidal ringing on node X128.nFeedback.

.....

Notice from spectre at time = 774.228 ps during transient analysis `TmpRead-000_TmpRead', during task `MDLControl'.
    Found trapezoidal ringing on node X128.nFeedback.

.......

Notice from spectre at time = 899 ps during transient analysis `TmpRead-000_TmpRead', during task `MDLControl'.
    Found trapezoidal ringing on node X128.nFeedback.

........

Notice from spectre at time = 945.734 ps during transient analysis `TmpRead-000_TmpRead', during task `MDLControl'.
    Found trapezoidal ringing on node X146.M_i_2:int_b.

........9

Notice from spectre at time = 969.468 ps during transient analysis `TmpRead-000_TmpRead', during task `MDLControl'.
    Found trapezoidal ringing on node X146.M_i_2:int_b.
        Further occurrences of this notice will be suppressed.

........9........8........7........6........5........4........3........2........1........0
Number of accepted tran steps =             996

Notice from spectre during transient analysis `TmpRead-000_TmpRead', during task `MDLControl'.
    Trapezoidal ringing is detected during tran analysis.
        Please use method=trap for better results and performance.


Maximum value achieved for any signal of each quantity: 
V: V(X128.nBiStable) = 10 V
I: I(X56.eBiStable:p) = 19.65 A
If your circuit contains signals of the same quantity that are vastly different in size (such as high voltage circuitry combined with low voltage control circuitry), you should consider specifying global option `bin_relref=yes'.

~~~~~~~~~~~~~~~~~~~~~~~~~~~~~~~~~
Post-Transient Simulation Summary
~~~~~~~~~~~~~~~~~~~~~~~~~~~~~~~~~
   -   To further speed up simulation, consider
          add ++aps on command line
~~~~~~~~~~~~~~~~~~~~~~~~~~~~~~~~~


During simulation, the CPU load for active processors is :
        Spectre  0 (2.9 %)       1 (98.2 %)      2 (2.4 %)       3 (2.5 %)
        Other   
Initial condition solution time: CPU = 93.777 ms, elapsed = 93.8179 ms.
Intrinsic tran analysis time:    CPU = 3.60358 s, elapsed = 3.62199 s.
Total time required for tran analysis `TmpRead-000_TmpRead': CPU = 3.70828 s, elapsed = 3.72684 s.
Time accumulated: CPU = 30.1781 s, elapsed = 30.4418 s.
Peak resident memory used = 95.4 Mbytes.


Notice from spectre during task `MDLControl'.
    465 notices suppressed.


Value of Exported Variables in this iteration of the Search loop ( iteration = 8 ) :
CurBL=0.000402355
TpRd=4.6875e-11

++++++++++++++++++++
TpRead = 2.54688e-10
++++++++++++++++++++

***************************************************************
Transient Analysis `TmpRead-000_TmpRead': time = (0 s -> 10 ns)
***************************************************************
Finding DC approximate solution failed. Try again with try_fast_op set to no.

Notice from spectre during IC analysis, during transient analysis `TmpRead-000_TmpRead', during task `MDLControl'.
    Bad pivoting is found during DC analysis. Option dc_pivot_check=yes is recommended for possible improvement of convergence.

DC simulation time: CPU = 93.583 ms, elapsed = 93.617 ms.

Notice from spectre during transient analysis `TmpRead-000_TmpRead', during task `MDLControl'.
    No outputs were found. Loosening output filter criterion to `allpub'.


Opening the PSF file Cell.raw/TmpRead-000_TmpRead.tran.tran ...
Important parameter values:
    start = 0 s
    outputstart = 0 s
    stop = 10 ns
    step = 10 ps
    maxstep = 200 ps
    ic = all
    useprevic = no
    skipdc = no
    reltol = 1e-03
    abstol(V) = 1 uV
    abstol(I) = 1 pA
    temp = 27 C
    tnom = 27 C
    tempeffects = all
    errpreset = moderate
    method = traponly
    lteratio = 3.5
    relref = sigglobal
    cmin = 0 F
    gmin = 1 pS


Output and IC/nodeset summary:
                 save   305     (current)
                 save   1889    (voltage)

...

Notice from spectre at time = 574.228 ps during transient analysis `TmpRead-000_TmpRead', during task `MDLControl'.
    Found trapezoidal ringing on node X128.nFeedback.

.....

Notice from spectre at time = 774.228 ps during transient analysis `TmpRead-000_TmpRead', during task `MDLControl'.
    Found trapezoidal ringing on node X128.nFeedback.

.......

Notice from spectre at time = 899 ps during transient analysis `TmpRead-000_TmpRead', during task `MDLControl'.
    Found trapezoidal ringing on node X128.nFeedback.

........

Notice from spectre at time = 945.734 ps during transient analysis `TmpRead-000_TmpRead', during task `MDLControl'.
    Found trapezoidal ringing on node X146.M_i_2:int_b.

........9

Notice from spectre at time = 969.468 ps during transient analysis `TmpRead-000_TmpRead', during task `MDLControl'.
    Found trapezoidal ringing on node X146.M_i_2:int_b.
        Further occurrences of this notice will be suppressed.

........9........8........7........6........5........4........3........2........1........0
Number of accepted tran steps =             996

Notice from spectre during transient analysis `TmpRead-000_TmpRead', during task `MDLControl'.
    Trapezoidal ringing is detected during tran analysis.
        Please use method=trap for better results and performance.


Maximum value achieved for any signal of each quantity: 
V: V(X128.nBiStable) = 10 V
I: I(X56.eBiStable:p) = 19.65 A
If your circuit contains signals of the same quantity that are vastly different in size (such as high voltage circuitry combined with low voltage control circuitry), you should consider specifying global option `bin_relref=yes'.

~~~~~~~~~~~~~~~~~~~~~~~~~~~~~~~~~
Post-Transient Simulation Summary
~~~~~~~~~~~~~~~~~~~~~~~~~~~~~~~~~
   -   To further speed up simulation, consider
          add ++aps on command line
~~~~~~~~~~~~~~~~~~~~~~~~~~~~~~~~~


During simulation, the CPU load for active processors is :
        Spectre  0 (2.7 %)       1 (98.3 %)      2 (2.5 %)       3 (2.5 %)
        Other   
Initial condition solution time: CPU = 93.645 ms, elapsed = 93.689 ms.
Intrinsic tran analysis time:    CPU = 3.56593 s, elapsed = 3.58813 s.
Total time required for tran analysis `TmpRead-000_TmpRead': CPU = 3.67046 s, elapsed = 3.69281 s.
Time accumulated: CPU = 33.8844 s, elapsed = 34.1704 s.
Peak resident memory used = 95.4 Mbytes.


Notice from spectre during task `MDLControl'.
    465 notices suppressed.


Value of Exported Variables in this iteration of the Search loop ( iteration = 9 ) :
CurBL=0.000401141
TpRd=4.53125e-11

++++++++++++++++++++
TpRead = 2.55469e-10
++++++++++++++++++++

***************************************************************
Transient Analysis `TmpRead-000_TmpRead': time = (0 s -> 10 ns)
***************************************************************
Finding DC approximate solution failed. Try again with try_fast_op set to no.

Notice from spectre during IC analysis, during transient analysis `TmpRead-000_TmpRead', during task `MDLControl'.
    Bad pivoting is found during DC analysis. Option dc_pivot_check=yes is recommended for possible improvement of convergence.

DC simulation time: CPU = 93.111 ms, elapsed = 93.1501 ms.

Notice from spectre during transient analysis `TmpRead-000_TmpRead', during task `MDLControl'.
    No outputs were found. Loosening output filter criterion to `allpub'.


Opening the PSF file Cell.raw/TmpRead-000_TmpRead.tran.tran ...
Important parameter values:
    start = 0 s
    outputstart = 0 s
    stop = 10 ns
    step = 10 ps
    maxstep = 200 ps
    ic = all
    useprevic = no
    skipdc = no
    reltol = 1e-03
    abstol(V) = 1 uV
    abstol(I) = 1 pA
    temp = 27 C
    tnom = 27 C
    tempeffects = all
    errpreset = moderate
    method = traponly
    lteratio = 3.5
    relref = sigglobal
    cmin = 0 F
    gmin = 1 pS


Output and IC/nodeset summary:
                 save   305     (current)
                 save   1889    (voltage)

...

Notice from spectre at time = 574.228 ps during transient analysis `TmpRead-000_TmpRead', during task `MDLControl'.
    Found trapezoidal ringing on node X128.nFeedback.

.....

Notice from spectre at time = 774.228 ps during transient analysis `TmpRead-000_TmpRead', during task `MDLControl'.
    Found trapezoidal ringing on node X128.nFeedback.

.......

Notice from spectre at time = 899 ps during transient analysis `TmpRead-000_TmpRead', during task `MDLControl'.
    Found trapezoidal ringing on node X128.nFeedback.

........

Notice from spectre at time = 945.734 ps during transient analysis `TmpRead-000_TmpRead', during task `MDLControl'.
    Found trapezoidal ringing on node X146.M_i_2:int_b.

........9

Notice from spectre at time = 969.468 ps during transient analysis `TmpRead-000_TmpRead', during task `MDLControl'.
    Found trapezoidal ringing on node X146.M_i_2:int_b.
        Further occurrences of this notice will be suppressed.

........9........8........7........6........5........4........3........2........1........0
Number of accepted tran steps =             996

Notice from spectre during transient analysis `TmpRead-000_TmpRead', during task `MDLControl'.
    Trapezoidal ringing is detected during tran analysis.
        Please use method=trap for better results and performance.


Maximum value achieved for any signal of each quantity: 
V: V(X128.nBiStable) = 10 V
I: I(X56.eBiStable:p) = 19.65 A
If your circuit contains signals of the same quantity that are vastly different in size (such as high voltage circuitry combined with low voltage control circuitry), you should consider specifying global option `bin_relref=yes'.

~~~~~~~~~~~~~~~~~~~~~~~~~~~~~~~~~
Post-Transient Simulation Summary
~~~~~~~~~~~~~~~~~~~~~~~~~~~~~~~~~
   -   To further speed up simulation, consider
          add ++aps on command line
~~~~~~~~~~~~~~~~~~~~~~~~~~~~~~~~~


During simulation, the CPU load for active processors is :
        Spectre  0 (2.6 %)       1 (98.4 %)      2 (2.4 %)       3 (2.6 %)
        Other   
Initial condition solution time: CPU = 93.176 ms, elapsed = 93.22 ms.
Intrinsic tran analysis time:    CPU = 3.63114 s, elapsed = 3.65811 s.
Total time required for tran analysis `TmpRead-000_TmpRead': CPU = 3.7353 s, elapsed = 3.76243 s.
Time accumulated: CPU = 37.6552 s, elapsed = 37.9685 s.
Peak resident memory used = 95.4 Mbytes.


Notice from spectre during task `MDLControl'.
    465 notices suppressed.


Value of Exported Variables in this iteration of the Search loop ( iteration = 10 ) :
CurBL=0.000400533
TpRd=4.45312e-11

++++++++++++++++++++
TpRead = 2.55859e-10
++++++++++++++++++++

***************************************************************
Transient Analysis `TmpRead-000_TmpRead': time = (0 s -> 10 ns)
***************************************************************
Finding DC approximate solution failed. Try again with try_fast_op set to no.

Notice from spectre during IC analysis, during transient analysis `TmpRead-000_TmpRead', during task `MDLControl'.
    Bad pivoting is found during DC analysis. Option dc_pivot_check=yes is recommended for possible improvement of convergence.

DC simulation time: CPU = 94.038 ms, elapsed = 94.08 ms.

Notice from spectre during transient analysis `TmpRead-000_TmpRead', during task `MDLControl'.
    No outputs were found. Loosening output filter criterion to `allpub'.


Opening the PSF file Cell.raw/TmpRead-000_TmpRead.tran.tran ...
Important parameter values:
    start = 0 s
    outputstart = 0 s
    stop = 10 ns
    step = 10 ps
    maxstep = 200 ps
    ic = all
    useprevic = no
    skipdc = no
    reltol = 1e-03
    abstol(V) = 1 uV
    abstol(I) = 1 pA
    temp = 27 C
    tnom = 27 C
    tempeffects = all
    errpreset = moderate
    method = traponly
    lteratio = 3.5
    relref = sigglobal
    cmin = 0 F
    gmin = 1 pS


Output and IC/nodeset summary:
                 save   305     (current)
                 save   1889    (voltage)

...

Notice from spectre at time = 574.228 ps during transient analysis `TmpRead-000_TmpRead', during task `MDLControl'.
    Found trapezoidal ringing on node X128.nFeedback.

.....

Notice from spectre at time = 774.228 ps during transient analysis `TmpRead-000_TmpRead', during task `MDLControl'.
    Found trapezoidal ringing on node X128.nFeedback.

.......

Notice from spectre at time = 899 ps during transient analysis `TmpRead-000_TmpRead', during task `MDLControl'.
    Found trapezoidal ringing on node X128.nFeedback.

........

Notice from spectre at time = 945.734 ps during transient analysis `TmpRead-000_TmpRead', during task `MDLControl'.
    Found trapezoidal ringing on node X146.M_i_2:int_b.

........9

Notice from spectre at time = 969.468 ps during transient analysis `TmpRead-000_TmpRead', during task `MDLControl'.
    Found trapezoidal ringing on node X146.M_i_2:int_b.
        Further occurrences of this notice will be suppressed.

........9........8........7........6........5........4........3........2........1........0
Number of accepted tran steps =             996

Notice from spectre during transient analysis `TmpRead-000_TmpRead', during task `MDLControl'.
    Trapezoidal ringing is detected during tran analysis.
        Please use method=trap for better results and performance.


Maximum value achieved for any signal of each quantity: 
V: V(X128.nBiStable) = 10 V
I: I(X56.eBiStable:p) = 19.65 A
If your circuit contains signals of the same quantity that are vastly different in size (such as high voltage circuitry combined with low voltage control circuitry), you should consider specifying global option `bin_relref=yes'.

~~~~~~~~~~~~~~~~~~~~~~~~~~~~~~~~~
Post-Transient Simulation Summary
~~~~~~~~~~~~~~~~~~~~~~~~~~~~~~~~~
   -   To further speed up simulation, consider
          add ++aps on command line
~~~~~~~~~~~~~~~~~~~~~~~~~~~~~~~~~


During simulation, the CPU load for active processors is :
        Spectre  0 (2.6 %)       1 (98.5 %)      2 (2.6 %)       3 (2.4 %)
        Other   
Initial condition solution time: CPU = 94.099 ms, elapsed = 94.147 ms.
Intrinsic tran analysis time:    CPU = 3.57787 s, elapsed = 3.60543 s.
Total time required for tran analysis `TmpRead-000_TmpRead': CPU = 3.68288 s, elapsed = 3.71059 s.
Time accumulated: CPU = 41.3747 s, elapsed = 41.7156 s.
Peak resident memory used = 95.4 Mbytes.


Notice from spectre during task `MDLControl'.
    465 notices suppressed.


Value of Exported Variables in this iteration of the Search loop ( iteration = 11 ) :
CurBL=0.00040023
TpRd=4.41406e-11

++++++++++++++++++++
TpRead = 2.56055e-10
++++++++++++++++++++

***************************************************************
Transient Analysis `TmpRead-000_TmpRead': time = (0 s -> 10 ns)
***************************************************************
Finding DC approximate solution failed. Try again with try_fast_op set to no.

Notice from spectre during IC analysis, during transient analysis `TmpRead-000_TmpRead', during task `MDLControl'.
    Bad pivoting is found during DC analysis. Option dc_pivot_check=yes is recommended for possible improvement of convergence.

DC simulation time: CPU = 92.901 ms, elapsed = 92.9391 ms.

Notice from spectre during transient analysis `TmpRead-000_TmpRead', during task `MDLControl'.
    No outputs were found. Loosening output filter criterion to `allpub'.


Opening the PSF file Cell.raw/TmpRead-000_TmpRead.tran.tran ...
Important parameter values:
    start = 0 s
    outputstart = 0 s
    stop = 10 ns
    step = 10 ps
    maxstep = 200 ps
    ic = all
    useprevic = no
    skipdc = no
    reltol = 1e-03
    abstol(V) = 1 uV
    abstol(I) = 1 pA
    temp = 27 C
    tnom = 27 C
    tempeffects = all
    errpreset = moderate
    method = traponly
    lteratio = 3.5
    relref = sigglobal
    cmin = 0 F
    gmin = 1 pS


Output and IC/nodeset summary:
                 save   305     (current)
                 save   1889    (voltage)

...

Notice from spectre at time = 574.228 ps during transient analysis `TmpRead-000_TmpRead', during task `MDLControl'.
    Found trapezoidal ringing on node X128.nFeedback.

.....

Notice from spectre at time = 774.228 ps during transient analysis `TmpRead-000_TmpRead', during task `MDLControl'.
    Found trapezoidal ringing on node X128.nFeedback.

.......

Notice from spectre at time = 899 ps during transient analysis `TmpRead-000_TmpRead', during task `MDLControl'.
    Found trapezoidal ringing on node X128.nFeedback.

........

Notice from spectre at time = 945.734 ps during transient analysis `TmpRead-000_TmpRead', during task `MDLControl'.
    Found trapezoidal ringing on node X146.M_i_2:int_b.

........9

Notice from spectre at time = 969.468 ps during transient analysis `TmpRead-000_TmpRead', during task `MDLControl'.
    Found trapezoidal ringing on node X146.M_i_2:int_b.
        Further occurrences of this notice will be suppressed.

........9........8........7........6........5........4........3........2........1........0
Number of accepted tran steps =             996

Notice from spectre during transient analysis `TmpRead-000_TmpRead', during task `MDLControl'.
    Trapezoidal ringing is detected during tran analysis.
        Please use method=trap for better results and performance.


Maximum value achieved for any signal of each quantity: 
V: V(X128.nBiStable) = 10 V
I: I(X56.eBiStable:p) = 19.65 A
If your circuit contains signals of the same quantity that are vastly different in size (such as high voltage circuitry combined with low voltage control circuitry), you should consider specifying global option `bin_relref=yes'.

~~~~~~~~~~~~~~~~~~~~~~~~~~~~~~~~~
Post-Transient Simulation Summary
~~~~~~~~~~~~~~~~~~~~~~~~~~~~~~~~~
   -   To further speed up simulation, consider
          add ++aps on command line
~~~~~~~~~~~~~~~~~~~~~~~~~~~~~~~~~


During simulation, the CPU load for active processors is :
        Spectre  0 (2.5 %)       1 (98.5 %)      2 (2.8 %)       3 (2.4 %)
        Other   
Initial condition solution time: CPU = 92.966 ms, elapsed = 93.013 ms.
Intrinsic tran analysis time:    CPU = 3.58583 s, elapsed = 3.61455 s.
Total time required for tran analysis `TmpRead-000_TmpRead': CPU = 3.69148 s, elapsed = 3.72036 s.
Time accumulated: CPU = 45.1017 s, elapsed = 45.4717 s.
Peak resident memory used = 95.4 Mbytes.


Notice from spectre during task `MDLControl'.
    465 notices suppressed.


Value of Exported Variables in this iteration of the Search loop ( iteration = 12 ) :
CurBL=0.000400078
TpRd=4.39453e-11

++++++++++++++++++++
TpRead = 2.56152e-10
++++++++++++++++++++

***************************************************************
Transient Analysis `TmpRead-000_TmpRead': time = (0 s -> 10 ns)
***************************************************************
Finding DC approximate solution failed. Try again with try_fast_op set to no.

Notice from spectre during IC analysis, during transient analysis `TmpRead-000_TmpRead', during task `MDLControl'.
    Bad pivoting is found during DC analysis. Option dc_pivot_check=yes is recommended for possible improvement of convergence.

DC simulation time: CPU = 94.208 ms, elapsed = 94.245 ms.

Notice from spectre during transient analysis `TmpRead-000_TmpRead', during task `MDLControl'.
    No outputs were found. Loosening output filter criterion to `allpub'.


Opening the PSF file Cell.raw/TmpRead-000_TmpRead.tran.tran ...
Important parameter values:
    start = 0 s
    outputstart = 0 s
    stop = 10 ns
    step = 10 ps
    maxstep = 200 ps
    ic = all
    useprevic = no
    skipdc = no
    reltol = 1e-03
    abstol(V) = 1 uV
    abstol(I) = 1 pA
    temp = 27 C
    tnom = 27 C
    tempeffects = all
    errpreset = moderate
    method = traponly
    lteratio = 3.5
    relref = sigglobal
    cmin = 0 F
    gmin = 1 pS


Output and IC/nodeset summary:
                 save   305     (current)
                 save   1889    (voltage)

...

Notice from spectre at time = 574.228 ps during transient analysis `TmpRead-000_TmpRead', during task `MDLControl'.
    Found trapezoidal ringing on node X128.nFeedback.

.....

Notice from spectre at time = 774.228 ps during transient analysis `TmpRead-000_TmpRead', during task `MDLControl'.
    Found trapezoidal ringing on node X128.nFeedback.

.......

Notice from spectre at time = 899 ps during transient analysis `TmpRead-000_TmpRead', during task `MDLControl'.
    Found trapezoidal ringing on node X128.nFeedback.

........

Notice from spectre at time = 945.734 ps during transient analysis `TmpRead-000_TmpRead', during task `MDLControl'.
    Found trapezoidal ringing on node X146.M_i_2:int_b.

........9

Notice from spectre at time = 969.468 ps during transient analysis `TmpRead-000_TmpRead', during task `MDLControl'.
    Found trapezoidal ringing on node X146.M_i_2:int_b.
        Further occurrences of this notice will be suppressed.

........9........8........7........6........5........4........3........2........1........0
Number of accepted tran steps =             996

Notice from spectre during transient analysis `TmpRead-000_TmpRead', during task `MDLControl'.
    Trapezoidal ringing is detected during tran analysis.
        Please use method=trap for better results and performance.


Maximum value achieved for any signal of each quantity: 
V: V(X128.nBiStable) = 10 V
I: I(X56.eBiStable:p) = 19.65 A
If your circuit contains signals of the same quantity that are vastly different in size (such as high voltage circuitry combined with low voltage control circuitry), you should consider specifying global option `bin_relref=yes'.

~~~~~~~~~~~~~~~~~~~~~~~~~~~~~~~~~
Post-Transient Simulation Summary
~~~~~~~~~~~~~~~~~~~~~~~~~~~~~~~~~
   -   To further speed up simulation, consider
          add ++aps on command line
~~~~~~~~~~~~~~~~~~~~~~~~~~~~~~~~~


During simulation, the CPU load for active processors is :
        Spectre  0 (2.3 %)       1 (98.6 %)      2 (2.8 %)       3 (2.4 %)
        Other   
Initial condition solution time: CPU = 94.271 ms, elapsed = 94.3122 ms.
Intrinsic tran analysis time:    CPU = 3.59183 s, elapsed = 3.61447 s.
Total time required for tran analysis `TmpRead-000_TmpRead': CPU = 3.69705 s, elapsed = 3.71983 s.
Time accumulated: CPU = 48.8352 s, elapsed = 49.2279 s.
Peak resident memory used = 95.4 Mbytes.


Notice from spectre during task `MDLControl'.
    465 notices suppressed.


Value of Exported Variables in this iteration of the Search loop ( iteration = 13 ) :
CurBL=0.000400002
TpRd=4.38477e-11

++++++++++++++++++++
TpRead = 2.56201e-10
++++++++++++++++++++

***************************************************************
Transient Analysis `TmpRead-000_TmpRead': time = (0 s -> 10 ns)
***************************************************************
Finding DC approximate solution failed. Try again with try_fast_op set to no.

Notice from spectre during IC analysis, during transient analysis `TmpRead-000_TmpRead', during task `MDLControl'.
    Bad pivoting is found during DC analysis. Option dc_pivot_check=yes is recommended for possible improvement of convergence.

DC simulation time: CPU = 93.902 ms, elapsed = 93.9379 ms.

Notice from spectre during transient analysis `TmpRead-000_TmpRead', during task `MDLControl'.
    No outputs were found. Loosening output filter criterion to `allpub'.


Opening the PSF file Cell.raw/TmpRead-000_TmpRead.tran.tran ...
Important parameter values:
    start = 0 s
    outputstart = 0 s
    stop = 10 ns
    step = 10 ps
    maxstep = 200 ps
    ic = all
    useprevic = no
    skipdc = no
    reltol = 1e-03
    abstol(V) = 1 uV
    abstol(I) = 1 pA
    temp = 27 C
    tnom = 27 C
    tempeffects = all
    errpreset = moderate
    method = traponly
    lteratio = 3.5
    relref = sigglobal
    cmin = 0 F
    gmin = 1 pS


Output and IC/nodeset summary:
                 save   305     (current)
                 save   1889    (voltage)

...

Notice from spectre at time = 574.228 ps during transient analysis `TmpRead-000_TmpRead', during task `MDLControl'.
    Found trapezoidal ringing on node X128.nFeedback.

.....

Notice from spectre at time = 774.228 ps during transient analysis `TmpRead-000_TmpRead', during task `MDLControl'.
    Found trapezoidal ringing on node X128.nFeedback.

.......

Notice from spectre at time = 899 ps during transient analysis `TmpRead-000_TmpRead', during task `MDLControl'.
    Found trapezoidal ringing on node X128.nFeedback.

........

Notice from spectre at time = 945.734 ps during transient analysis `TmpRead-000_TmpRead', during task `MDLControl'.
    Found trapezoidal ringing on node X146.M_i_2:int_b.

........9

Notice from spectre at time = 969.468 ps during transient analysis `TmpRead-000_TmpRead', during task `MDLControl'.
    Found trapezoidal ringing on node X146.M_i_2:int_b.
        Further occurrences of this notice will be suppressed.

........9........8........7........6........5........4........3........2........1........0
Number of accepted tran steps =             996

Notice from spectre during transient analysis `TmpRead-000_TmpRead', during task `MDLControl'.
    Trapezoidal ringing is detected during tran analysis.
        Please use method=trap for better results and performance.


Maximum value achieved for any signal of each quantity: 
V: V(X128.nBiStable) = 10 V
I: I(X56.eBiStable:p) = 19.65 A
If your circuit contains signals of the same quantity that are vastly different in size (such as high voltage circuitry combined with low voltage control circuitry), you should consider specifying global option `bin_relref=yes'.

~~~~~~~~~~~~~~~~~~~~~~~~~~~~~~~~~
Post-Transient Simulation Summary
~~~~~~~~~~~~~~~~~~~~~~~~~~~~~~~~~
   -   To further speed up simulation, consider
          add ++aps on command line
~~~~~~~~~~~~~~~~~~~~~~~~~~~~~~~~~


During simulation, the CPU load for active processors is :
        Spectre  0 (2.3 %)       1 (98.7 %)      2 (2.7 %)       3 (2.4 %)
        Other   
Initial condition solution time: CPU = 93.963 ms, elapsed = 94.0058 ms.
Intrinsic tran analysis time:    CPU = 3.575 s, elapsed = 3.5998 s.
Total time required for tran analysis `TmpRead-000_TmpRead': CPU = 3.67997 s, elapsed = 3.70492 s.
Time accumulated: CPU = 52.5513 s, elapsed = 52.969 s.
Peak resident memory used = 95.4 Mbytes.


Notice from spectre during task `MDLControl'.
    465 notices suppressed.


Value of Exported Variables in this iteration of the Search loop ( iteration = 14 ) :
CurBL=0.000399964
TpRd=4.37988e-11

++++++++++++++++++++
TpRead = 2.56177e-10
++++++++++++++++++++

***************************************************************
Transient Analysis `TmpRead-000_TmpRead': time = (0 s -> 10 ns)
***************************************************************
Finding DC approximate solution failed. Try again with try_fast_op set to no.

Notice from spectre during IC analysis, during transient analysis `TmpRead-000_TmpRead', during task `MDLControl'.
    Bad pivoting is found during DC analysis. Option dc_pivot_check=yes is recommended for possible improvement of convergence.

DC simulation time: CPU = 95.654 ms, elapsed = 95.691 ms.

Notice from spectre during transient analysis `TmpRead-000_TmpRead', during task `MDLControl'.
    No outputs were found. Loosening output filter criterion to `allpub'.


Opening the PSF file Cell.raw/TmpRead-000_TmpRead.tran.tran ...
Important parameter values:
    start = 0 s
    outputstart = 0 s
    stop = 10 ns
    step = 10 ps
    maxstep = 200 ps
    ic = all
    useprevic = no
    skipdc = no
    reltol = 1e-03
    abstol(V) = 1 uV
    abstol(I) = 1 pA
    temp = 27 C
    tnom = 27 C
    tempeffects = all
    errpreset = moderate
    method = traponly
    lteratio = 3.5
    relref = sigglobal
    cmin = 0 F
    gmin = 1 pS


Output and IC/nodeset summary:
                 save   305     (current)
                 save   1889    (voltage)

...

Notice from spectre at time = 574.228 ps during transient analysis `TmpRead-000_TmpRead', during task `MDLControl'.
    Found trapezoidal ringing on node X128.nFeedback.

.....

Notice from spectre at time = 774.228 ps during transient analysis `TmpRead-000_TmpRead', during task `MDLControl'.
    Found trapezoidal ringing on node X128.nFeedback.

.......

Notice from spectre at time = 899 ps during transient analysis `TmpRead-000_TmpRead', during task `MDLControl'.
    Found trapezoidal ringing on node X128.nFeedback.

........

Notice from spectre at time = 945.734 ps during transient analysis `TmpRead-000_TmpRead', during task `MDLControl'.
    Found trapezoidal ringing on node X146.M_i_2:int_b.

........9

Notice from spectre at time = 969.468 ps during transient analysis `TmpRead-000_TmpRead', during task `MDLControl'.
    Found trapezoidal ringing on node X146.M_i_2:int_b.
        Further occurrences of this notice will be suppressed.

........9........8........7........6........5........4........3........2........1........0
Number of accepted tran steps =             996

Notice from spectre during transient analysis `TmpRead-000_TmpRead', during task `MDLControl'.
    Trapezoidal ringing is detected during tran analysis.
        Please use method=trap for better results and performance.


Maximum value achieved for any signal of each quantity: 
V: V(X128.nBiStable) = 10 V
I: I(X56.eBiStable:p) = 19.65 A
If your circuit contains signals of the same quantity that are vastly different in size (such as high voltage circuitry combined with low voltage control circuitry), you should consider specifying global option `bin_relref=yes'.

~~~~~~~~~~~~~~~~~~~~~~~~~~~~~~~~~
Post-Transient Simulation Summary
~~~~~~~~~~~~~~~~~~~~~~~~~~~~~~~~~
   -   To further speed up simulation, consider
          add ++aps on command line
~~~~~~~~~~~~~~~~~~~~~~~~~~~~~~~~~


During simulation, the CPU load for active processors is :
        Spectre  0 (2.3 %)       1 (98.7 %)      2 (2.8 %)       3 (2.4 %)
        Other   
Initial condition solution time: CPU = 95.716 ms, elapsed = 95.7601 ms.
Intrinsic tran analysis time:    CPU = 3.58799 s, elapsed = 3.61034 s.
Total time required for tran analysis `TmpRead-000_TmpRead': CPU = 3.69465 s, elapsed = 3.71716 s.
Time accumulated: CPU = 56.282 s, elapsed = 56.7223 s.
Peak resident memory used = 95.4 Mbytes.


Notice from spectre during task `MDLControl'.
    465 notices suppressed.


Value of Exported Variables in this iteration of the Search loop ( iteration = 15 ) :
CurBL=0.000399983
TpRd=4.38232e-11

++++++++++++++++++++
TpRead = 2.56165e-10
++++++++++++++++++++

***************************************************************
Transient Analysis `TmpRead-000_TmpRead': time = (0 s -> 10 ns)
***************************************************************
Finding DC approximate solution failed. Try again with try_fast_op set to no.

Notice from spectre during IC analysis, during transient analysis `TmpRead-000_TmpRead', during task `MDLControl'.
    Bad pivoting is found during DC analysis. Option dc_pivot_check=yes is recommended for possible improvement of convergence.

DC simulation time: CPU = 93.43 ms, elapsed = 93.4639 ms.

Notice from spectre during transient analysis `TmpRead-000_TmpRead', during task `MDLControl'.
    No outputs were found. Loosening output filter criterion to `allpub'.


Opening the PSF file Cell.raw/TmpRead-000_TmpRead.tran.tran ...
Important parameter values:
    start = 0 s
    outputstart = 0 s
    stop = 10 ns
    step = 10 ps
    maxstep = 200 ps
    ic = all
    useprevic = no
    skipdc = no
    reltol = 1e-03
    abstol(V) = 1 uV
    abstol(I) = 1 pA
    temp = 27 C
    tnom = 27 C
    tempeffects = all
    errpreset = moderate
    method = traponly
    lteratio = 3.5
    relref = sigglobal
    cmin = 0 F
    gmin = 1 pS


Output and IC/nodeset summary:
                 save   305     (current)
                 save   1889    (voltage)

...

Notice from spectre at time = 574.228 ps during transient analysis `TmpRead-000_TmpRead', during task `MDLControl'.
    Found trapezoidal ringing on node X128.nFeedback.

.....

Notice from spectre at time = 774.228 ps during transient analysis `TmpRead-000_TmpRead', during task `MDLControl'.
    Found trapezoidal ringing on node X128.nFeedback.

.......

Notice from spectre at time = 899 ps during transient analysis `TmpRead-000_TmpRead', during task `MDLControl'.
    Found trapezoidal ringing on node X128.nFeedback.

........

Notice from spectre at time = 945.734 ps during transient analysis `TmpRead-000_TmpRead', during task `MDLControl'.
    Found trapezoidal ringing on node X146.M_i_2:int_b.

........9

Notice from spectre at time = 969.468 ps during transient analysis `TmpRead-000_TmpRead', during task `MDLControl'.
    Found trapezoidal ringing on node X146.M_i_2:int_b.
        Further occurrences of this notice will be suppressed.

........9........8........7........6........5........4........3........2........1........0
Number of accepted tran steps =             996

Notice from spectre during transient analysis `TmpRead-000_TmpRead', during task `MDLControl'.
    Trapezoidal ringing is detected during tran analysis.
        Please use method=trap for better results and performance.


Maximum value achieved for any signal of each quantity: 
V: V(X128.nBiStable) = 10 V
I: I(X56.eBiStable:p) = 19.65 A
If your circuit contains signals of the same quantity that are vastly different in size (such as high voltage circuitry combined with low voltage control circuitry), you should consider specifying global option `bin_relref=yes'.

~~~~~~~~~~~~~~~~~~~~~~~~~~~~~~~~~
Post-Transient Simulation Summary
~~~~~~~~~~~~~~~~~~~~~~~~~~~~~~~~~
   -   To further speed up simulation, consider
          add ++aps on command line
~~~~~~~~~~~~~~~~~~~~~~~~~~~~~~~~~


During simulation, the CPU load for active processors is :
        Spectre  0 (2.3 %)       1 (98.8 %)      2 (2.8 %)       3 (2.4 %)
        Other   
Initial condition solution time: CPU = 93.491 ms, elapsed = 93.5328 ms.
Intrinsic tran analysis time:    CPU = 3.60662 s, elapsed = 3.62841 s.
Total time required for tran analysis `TmpRead-000_TmpRead': CPU = 3.71112 s, elapsed = 3.73305 s.
Time accumulated: CPU = 60.0291 s (1m  0.0s), elapsed = 60.4914 s (1m  0.5s).
Peak resident memory used = 95.4 Mbytes.


Notice from spectre during task `MDLControl'.
    465 notices suppressed.


Value of Exported Variables in this iteration of the Search loop ( iteration = 16 ) :
CurBL=0.000399992
TpRd=4.38354e-11

++++++++++++++++++++
TpRead = 2.56158e-10
++++++++++++++++++++

***************************************************************
Transient Analysis `TmpRead-000_TmpRead': time = (0 s -> 10 ns)
***************************************************************
Finding DC approximate solution failed. Try again with try_fast_op set to no.

Notice from spectre during IC analysis, during transient analysis `TmpRead-000_TmpRead', during task `MDLControl'.
    Bad pivoting is found during DC analysis. Option dc_pivot_check=yes is recommended for possible improvement of convergence.

DC simulation time: CPU = 94.031 ms, elapsed = 94.064 ms.

Notice from spectre during transient analysis `TmpRead-000_TmpRead', during task `MDLControl'.
    No outputs were found. Loosening output filter criterion to `allpub'.


Opening the PSF file Cell.raw/TmpRead-000_TmpRead.tran.tran ...
Important parameter values:
    start = 0 s
    outputstart = 0 s
    stop = 10 ns
    step = 10 ps
    maxstep = 200 ps
    ic = all
    useprevic = no
    skipdc = no
    reltol = 1e-03
    abstol(V) = 1 uV
    abstol(I) = 1 pA
    temp = 27 C
    tnom = 27 C
    tempeffects = all
    errpreset = moderate
    method = traponly
    lteratio = 3.5
    relref = sigglobal
    cmin = 0 F
    gmin = 1 pS


Output and IC/nodeset summary:
                 save   305     (current)
                 save   1889    (voltage)

...

Notice from spectre at time = 574.228 ps during transient analysis `TmpRead-000_TmpRead', during task `MDLControl'.
    Found trapezoidal ringing on node X128.nFeedback.

.....

Notice from spectre at time = 774.228 ps during transient analysis `TmpRead-000_TmpRead', during task `MDLControl'.
    Found trapezoidal ringing on node X128.nFeedback.

.......

Notice from spectre at time = 899 ps during transient analysis `TmpRead-000_TmpRead', during task `MDLControl'.
    Found trapezoidal ringing on node X128.nFeedback.

........

Notice from spectre at time = 945.734 ps during transient analysis `TmpRead-000_TmpRead', during task `MDLControl'.
    Found trapezoidal ringing on node X146.M_i_2:int_b.

........9

Notice from spectre at time = 969.468 ps during transient analysis `TmpRead-000_TmpRead', during task `MDLControl'.
    Found trapezoidal ringing on node X146.M_i_2:int_b.
        Further occurrences of this notice will be suppressed.

........9........8........7........6........5........4........3........2........1........0
Number of accepted tran steps =             996

Notice from spectre during transient analysis `TmpRead-000_TmpRead', during task `MDLControl'.
    Trapezoidal ringing is detected during tran analysis.
        Please use method=trap for better results and performance.


Maximum value achieved for any signal of each quantity: 
V: V(X128.nBiStable) = 10 V
I: I(X56.eBiStable:p) = 19.65 A
If your circuit contains signals of the same quantity that are vastly different in size (such as high voltage circuitry combined with low voltage control circuitry), you should consider specifying global option `bin_relref=yes'.

~~~~~~~~~~~~~~~~~~~~~~~~~~~~~~~~~
Post-Transient Simulation Summary
~~~~~~~~~~~~~~~~~~~~~~~~~~~~~~~~~
   -   To further speed up simulation, consider
          add ++aps on command line
~~~~~~~~~~~~~~~~~~~~~~~~~~~~~~~~~


During simulation, the CPU load for active processors is :
        Spectre  0 (2.3 %)       1 (98.8 %)      2 (2.9 %)       3 (2.5 %)
        Other   
Initial condition solution time: CPU = 94.094 ms, elapsed = 94.1331 ms.
Intrinsic tran analysis time:    CPU = 3.61347 s, elapsed = 3.63997 s.
Total time required for tran analysis `TmpRead-000_TmpRead': CPU = 3.71885 s, elapsed = 3.74551 s.
Time accumulated: CPU = 63.7839 s (1m  3.8s), elapsed = 64.2728 s (1m  4.3s).
Peak resident memory used = 95.4 Mbytes.


Notice from spectre during task `MDLControl'.
    465 notices suppressed.


Value of Exported Variables in this iteration of the Search loop ( iteration = 17 ) :
CurBL=0.000399997
TpRd=4.38416e-11

++++++++++++++++++++
TpRead = 2.56155e-10
++++++++++++++++++++

***************************************************************
Transient Analysis `TmpRead-000_TmpRead': time = (0 s -> 10 ns)
***************************************************************
Finding DC approximate solution failed. Try again with try_fast_op set to no.

Notice from spectre during IC analysis, during transient analysis `TmpRead-000_TmpRead', during task `MDLControl'.
    Bad pivoting is found during DC analysis. Option dc_pivot_check=yes is recommended for possible improvement of convergence.

DC simulation time: CPU = 93.724 ms, elapsed = 93.7629 ms.

Notice from spectre during transient analysis `TmpRead-000_TmpRead', during task `MDLControl'.
    No outputs were found. Loosening output filter criterion to `allpub'.


Opening the PSF file Cell.raw/TmpRead-000_TmpRead.tran.tran ...
Important parameter values:
    start = 0 s
    outputstart = 0 s
    stop = 10 ns
    step = 10 ps
    maxstep = 200 ps
    ic = all
    useprevic = no
    skipdc = no
    reltol = 1e-03
    abstol(V) = 1 uV
    abstol(I) = 1 pA
    temp = 27 C
    tnom = 27 C
    tempeffects = all
    errpreset = moderate
    method = traponly
    lteratio = 3.5
    relref = sigglobal
    cmin = 0 F
    gmin = 1 pS


Output and IC/nodeset summary:
                 save   305     (current)
                 save   1889    (voltage)

...

Notice from spectre at time = 574.228 ps during transient analysis `TmpRead-000_TmpRead', during task `MDLControl'.
    Found trapezoidal ringing on node X128.nFeedback.

.....

Notice from spectre at time = 774.228 ps during transient analysis `TmpRead-000_TmpRead', during task `MDLControl'.
    Found trapezoidal ringing on node X128.nFeedback.

.......

Notice from spectre at time = 899 ps during transient analysis `TmpRead-000_TmpRead', during task `MDLControl'.
    Found trapezoidal ringing on node X128.nFeedback.

........

Notice from spectre at time = 945.734 ps during transient analysis `TmpRead-000_TmpRead', during task `MDLControl'.
    Found trapezoidal ringing on node X146.M_i_2:int_b.

........9

Notice from spectre at time = 969.468 ps during transient analysis `TmpRead-000_TmpRead', during task `MDLControl'.
    Found trapezoidal ringing on node X146.M_i_2:int_b.
        Further occurrences of this notice will be suppressed.

........9........8........7........6........5........4........3........2........1........0
Number of accepted tran steps =             996

Notice from spectre during transient analysis `TmpRead-000_TmpRead', during task `MDLControl'.
    Trapezoidal ringing is detected during tran analysis.
        Please use method=trap for better results and performance.


Maximum value achieved for any signal of each quantity: 
V: V(X128.nBiStable) = 10 V
I: I(X56.eBiStable:p) = 19.65 A
If your circuit contains signals of the same quantity that are vastly different in size (such as high voltage circuitry combined with low voltage control circuitry), you should consider specifying global option `bin_relref=yes'.

~~~~~~~~~~~~~~~~~~~~~~~~~~~~~~~~~
Post-Transient Simulation Summary
~~~~~~~~~~~~~~~~~~~~~~~~~~~~~~~~~
   -   To further speed up simulation, consider
          add ++aps on command line
~~~~~~~~~~~~~~~~~~~~~~~~~~~~~~~~~


During simulation, the CPU load for active processors is :
        Spectre  0 (2.3 %)       1 (98.8 %)      2 (2.8 %)       3 (2.5 %)
        Other   
Initial condition solution time: CPU = 93.792 ms, elapsed = 93.842 ms.
Intrinsic tran analysis time:    CPU = 3.59111 s, elapsed = 3.61957 s.
Total time required for tran analysis `TmpRead-000_TmpRead': CPU = 3.69585 s, elapsed = 3.72446 s.
Time accumulated: CPU = 67.5156 s (1m  7.5s), elapsed = 68.0333 s (1m  8.0s).
Peak resident memory used = 95.4 Mbytes.


Notice from spectre during task `MDLControl'.
    465 notices suppressed.


Value of Exported Variables in this iteration of the Search loop ( iteration = 18 ) :
CurBL=0.0004
TpRd=4.38446e-11

++++++++++++++++++++
TpRead = 2.56154e-10
++++++++++++++++++++

***************************************************************
Transient Analysis `TmpRead-000_TmpRead': time = (0 s -> 10 ns)
***************************************************************
Finding DC approximate solution failed. Try again with try_fast_op set to no.

Notice from spectre during IC analysis, during transient analysis `TmpRead-000_TmpRead', during task `MDLControl'.
    Bad pivoting is found during DC analysis. Option dc_pivot_check=yes is recommended for possible improvement of convergence.

DC simulation time: CPU = 94.427 ms, elapsed = 94.455 ms.

Notice from spectre during transient analysis `TmpRead-000_TmpRead', during task `MDLControl'.
    No outputs were found. Loosening output filter criterion to `allpub'.


Opening the PSF file Cell.raw/TmpRead-000_TmpRead.tran.tran ...
Important parameter values:
    start = 0 s
    outputstart = 0 s
    stop = 10 ns
    step = 10 ps
    maxstep = 200 ps
    ic = all
    useprevic = no
    skipdc = no
    reltol = 1e-03
    abstol(V) = 1 uV
    abstol(I) = 1 pA
    temp = 27 C
    tnom = 27 C
    tempeffects = all
    errpreset = moderate
    method = traponly
    lteratio = 3.5
    relref = sigglobal
    cmin = 0 F
    gmin = 1 pS


Output and IC/nodeset summary:
                 save   305     (current)
                 save   1889    (voltage)

...

Notice from spectre at time = 574.228 ps during transient analysis `TmpRead-000_TmpRead', during task `MDLControl'.
    Found trapezoidal ringing on node X128.nFeedback.

.....

Notice from spectre at time = 774.228 ps during transient analysis `TmpRead-000_TmpRead', during task `MDLControl'.
    Found trapezoidal ringing on node X128.nFeedback.

.......

Notice from spectre at time = 899 ps during transient analysis `TmpRead-000_TmpRead', during task `MDLControl'.
    Found trapezoidal ringing on node X128.nFeedback.

........

Notice from spectre at time = 945.734 ps during transient analysis `TmpRead-000_TmpRead', during task `MDLControl'.
    Found trapezoidal ringing on node X146.M_i_2:int_b.

........9

Notice from spectre at time = 969.468 ps during transient analysis `TmpRead-000_TmpRead', during task `MDLControl'.
    Found trapezoidal ringing on node X146.M_i_2:int_b.
        Further occurrences of this notice will be suppressed.

........9........8........7........6........5........4........3........2........1........0
Number of accepted tran steps =             996

Notice from spectre during transient analysis `TmpRead-000_TmpRead', during task `MDLControl'.
    Trapezoidal ringing is detected during tran analysis.
        Please use method=trap for better results and performance.


Maximum value achieved for any signal of each quantity: 
V: V(X128.nBiStable) = 10 V
I: I(X56.eBiStable:p) = 19.65 A
If your circuit contains signals of the same quantity that are vastly different in size (such as high voltage circuitry combined with low voltage control circuitry), you should consider specifying global option `bin_relref=yes'.

~~~~~~~~~~~~~~~~~~~~~~~~~~~~~~~~~
Post-Transient Simulation Summary
~~~~~~~~~~~~~~~~~~~~~~~~~~~~~~~~~
   -   To further speed up simulation, consider
          add ++aps on command line
~~~~~~~~~~~~~~~~~~~~~~~~~~~~~~~~~


During simulation, the CPU load for active processors is :
        Spectre  0 (2.3 %)       1 (98.9 %)      2 (2.8 %)       3 (2.4 %)
        Other   
Initial condition solution time: CPU = 94.494 ms, elapsed = 94.5301 ms.
Intrinsic tran analysis time:    CPU = 3.59027 s, elapsed = 3.61538 s.
Total time required for tran analysis `TmpRead-000_TmpRead': CPU = 3.69574 s, elapsed = 3.72098 s.
Time accumulated: CPU = 71.2474 s (1m  11.2s), elapsed = 71.7903 s (1m  11.8s).
Peak resident memory used = 95.4 Mbytes.


Notice from spectre during task `MDLControl'.
    465 notices suppressed.


[...]
          v = 0 V
          i = -2.92969e-24 A
        pwr = -0 W

Instance: X38.vISample of MTJT
Model: vsource
Primitive: vsource
          p : V(NM38) = 295.275 mV
          n : V(X38.nVCR1) = 295.275 mV
          v = 0 V
          i = 8.30485e-24 A
        pwr = 0 W

Instance: X39.vISample of MTJT
Model: vsource
Primitive: vsource
          p : V(NM39) = 295.275 mV
          n : V(X39.nVCR1) = 295.275 mV
          v = 0 V
          i = 11.0658e-24 A
        pwr = 0 W

Instance: X40.vISample of MTJT
Model: vsource
Primitive: vsource
          p : V(NM40) = 295.275 mV
          n : V(X40.nVCR1) = 295.275 mV
          v = 0 V
          i = 11.0659e-24 A
        pwr = 0 W

Instance: X41.vISample of MTJT
Model: vsource
Primitive: vsource
          p : V(NM41) = 295.275 mV
          n : V(X41.nVCR1) = 295.275 mV
          v = 0 V
          i = -16.9261e-24 A
        pwr = -0 W

Instance: X42.vISample of MTJT
Model: vsource
Primitive: vsource
          p : V(NM42) = 295.275 mV
          n : V(X42.nVCR1) = 295.275 mV
          v = 0 V
          i = 8.6765e-24 A
        pwr = 0 W

Instance: X43.vISample of MTJT
Model: vsource
Primitive: vsource
          p : V(NM43) = 295.275 mV
          n : V(X43.nVCR1) = 295.275 mV
          v = 0 V
          i = 25.062e-24 A
        pwr = 0 W

Instance: X44.vISample of MTJT
Model: vsource
Primitive: vsource
          p : V(NM44) = 295.275 mV
          n : V(X44.nVCR1) = 295.275 mV
          v = 0 V
          i = -2.93002e-24 A
        pwr = -0 W

Instance: X45.vISample of MTJT
Model: vsource
Primitive: vsource
          p : V(NM45) = 295.275 mV
          n : V(X45.nVCR1) = 295.275 mV
          v = 0 V
          i = 11.0662e-24 A
        pwr = 0 W

Instance: X46.vISample of MTJT
Model: vsource
Primitive: vsource
          p : V(NM46) = 295.275 mV
          n : V(X46.nVCR1) = 295.275 mV
          v = 0 V
          i = 11.0659e-24 A
        pwr = 0 W

Instance: X47.vISample of MTJT
Model: vsource
Primitive: vsource
          p : V(NM47) = 295.275 mV
          n : V(X47.nVCR1) = 295.275 mV
          v = 0 V
          i = -2.93021e-24 A
        pwr = -0 W

Instance: X48.vISample of MTJT
Model: vsource
Primitive: vsource
          p : V(NM48) = 295.275 mV
          n : V(X48.nVCR1) = 295.275 mV
          v = 0 V
          i = -5.31986e-24 A
        pwr = -0 W

Instance: X49.vISample of MTJT
Model: vsource
Primitive: vsource
          p : V(NM49) = 295.275 mV
          n : V(X49.nVCR1) = 295.275 mV
          v = 0 V
          i = 12.1431e-24 A
        pwr = 0 W

Instance: X50.vISample of MTJT
Model: vsource
Primitive: vsource
          p : V(NM50) = 295.275 mV
          n : V(X50.nVCR1) = 295.275 mV
          v = 0 V
          i = -34.6207e-24 A
        pwr = -0 W

Instance: X51.vISample of MTJT
Model: vsource
Primitive: vsource
          p : V(NM51) = 295.275 mV
          n : V(X51.nVCR1) = 295.275 mV
          v = 0 V
          i = 23.9806e-24 A
        pwr = 0 W

Instance: X52.vISample of MTJT
Model: vsource
Primitive: vsource
          p : V(NM52) = 295.275 mV
          n : V(X52.nVCR1) = 295.275 mV
          v = 0 V
          i = 8.84968e-24 A
        pwr = 0 W

Instance: X53.vISample of MTJT
Model: vsource
Primitive: vsource
          p : V(NM53) = 295.275 mV
          n : V(X53.nVCR1) = 295.275 mV
          v = 0 V
          i = -23.8105e-24 A
        pwr = -0 W

Instance: X54.vISample of MTJT
Model: vsource
Primitive: vsource
          p : V(NM54) = 295.275 mV
          n : V(X54.nVCR1) = 295.275 mV
          v = 0 V
          i = 16.0992e-24 A
        pwr = 0 W

Instance: X55.vISample of MTJT
Model: vsource
Primitive: vsource
          p : V(NM55) = 295.275 mV
          n : V(X55.nVCR1) = 295.275 mV
          v = 0 V
          i = 2.92978e-24 A
        pwr = 0 W

Instance: X56.vISample of MTJT
Model: vsource
Primitive: vsource
          p : V(NM56) = 295.275 mV
          n : V(X56.nVCR1) = 295.275 mV
          v = 0 V
          i = 2.92986e-24 A
        pwr = 0 W

Instance: X57.vISample of MTJT
Model: vsource
Primitive: vsource
          p : V(NM57) = 295.275 mV
          n : V(X57.nVCR1) = 295.275 mV
          v = 0 V
          i = -2.75955e-24 A
        pwr = -0 W

Instance: X58.vISample of MTJT
Model: vsource
Primitive: vsource
          p : V(NM58) = 295.275 mV
          n : V(X58.nVCR1) = 295.275 mV
          v = 0 V
          i = 540.047e-27 A
        pwr = 0 W

Instance: X59.vISample of MTJT
Model: vsource
Primitive: vsource
          p : V(NM59) = 295.275 mV
          n : V(X59.nVCR1) = 295.275 mV
          v = 0 V
          i = 13.7395e-24 A
        pwr = 0 W

Instance: X60.vISample of MTJT
Model: vsource
Primitive: vsource
          p : V(NM60) = 295.275 mV
          n : V(X60.nVCR1) = 295.275 mV
          v = 0 V
          i = -23.8105e-24 A
        pwr = -0 W

Instance: X61.vISample of MTJT
Model: vsource
Primitive: vsource
          p : V(NM61) = 295.275 mV
          n : V(X61.nVCR1) = 295.275 mV
          v = 0 V
          i = -12.8529e-24 A
        pwr = -0 W

Instance: X62.vISample of MTJT
Model: vsource
Primitive: vsource
          p : V(NM62) = 295.275 mV
          n : V(X62.nVCR1) = 295.275 mV
          v = 0 V
          i = 2.93011e-24 A
        pwr = 0 W

Instance: X63.vISample of MTJT
Model: vsource
Primitive: vsource
          p : V(NM63) = 295.275 mV
          n : V(X63.nVCR1) = 295.275 mV
          v = 0 V
          i = 8.05067e-24 A
        pwr = 0 W

Instance: X64.vISample of MTJT
Model: vsource
Primitive: vsource
          p : V(NM64) = 295.275 mV
          n : V(X64.nVCR1) = 295.275 mV
          v = 0 V
          i = 5.66087e-24 A
        pwr = 0 W

Instance: X65.vISample of MTJT
Model: vsource
Primitive: vsource
          p : V(NM65) = 295.275 mV
          n : V(X65.nVCR1) = 295.275 mV
          v = 0 V
          i = -2.69162e-24 A
        pwr = -0 W

Instance: X66.vISample of MTJT
Model: vsource
Primitive: vsource
          p : V(NM66) = 295.275 mV
          n : V(X66.nVCR1) = 295.275 mV
          v = 0 V
          i = 35.2944e-24 A
        pwr = 0 W

Instance: X67.vISample of MTJT
Model: vsource
Primitive: vsource
          p : V(NM67) = 295.275 mV
          n : V(X67.nVCR1) = 295.275 mV
          v = 0 V
          i = -13.7938e-24 A
        pwr = -0 W

Instance: X68.vISample of MTJT
Model: vsource
Primitive: vsource
          p : V(NM68) = 295.275 mV
          n : V(X68.nVCR1) = 295.275 mV
          v = 0 V
          i = 386.404e-27 A
        pwr = 0 W

Instance: X69.vISample of MTJT
Model: vsource
Primitive: vsource
          p : V(NM69) = 295.275 mV
          n : V(X69.nVCR1) = 295.275 mV
          v = 0 V
          i = 12.0129e-24 A
        pwr = 0 W

Instance: X70.vISample of MTJT
Model: vsource
Primitive: vsource
          p : V(NM70) = 295.275 mV
          n : V(X70.nVCR1) = 295.275 mV
          v = 0 V
          i = -21.7623e-24 A
        pwr = -0 W

Instance: X71.vISample of MTJT
Model: vsource
Primitive: vsource
          p : V(NM71) = 295.275 mV
          n : V(X71.nVCR1) = 295.275 mV
          v = 0 V
          i = -1.74635e-24 A
        pwr = -0 W

Instance: X72.vISample of MTJT
Model: vsource
Primitive: vsource
          p : V(NM72) = 295.275 mV
          n : V(X72.nVCR1) = 295.275 mV
          v = 0 V
          i = -5.53278e-24 A
        pwr = -0 W

Instance: X73.vISample of MTJT
Model: vsource
Primitive: vsource
          p : V(NM73) = 295.275 mV
          n : V(X73.nVCR1) = 295.275 mV
          v = 0 V
          i = 13.9477e-24 A
        pwr = 0 W

Instance: X74.vISample of MTJT
Model: vsource
Primitive: vsource
          p : V(NM74) = 295.275 mV
          n : V(X74.nVCR1) = 295.275 mV
          v = 0 V
          i = 4.50239e-24 A
        pwr = 0 W

Instance: X75.vISample of MTJT
Model: vsource
Primitive: vsource
          p : V(NM75) = 295.275 mV
          n : V(X75.nVCR1) = 295.275 mV
          v = 0 V
          i = -13.8603e-24 A
        pwr = -0 W

Instance: X76.vISample of MTJT
Model: vsource
Primitive: vsource
          p : V(NM76) = 295.275 mV
          n : V(X76.nVCR1) = 295.275 mV
          v = 0 V
          i = 12.0133e-24 A
        pwr = 0 W

Instance: X77.vISample of MTJT
Model: vsource
Primitive: vsource
          p : V(NM77) = 295.275 mV
          n : V(X77.nVCR1) = 295.275 mV
          v = 0 V
          i = 1.44663e-24 A
        pwr = 0 W

Instance: X78.vISample of MTJT
Model: vsource
Primitive: vsource
          p : V(NM78) = 295.275 mV
          n : V(X78.nVCR1) = 295.275 mV
          v = 0 V
          i = -8.08183e-24 A
        pwr = -0 W

Instance: X79.vISample of MTJT
Model: vsource
Primitive: vsource
          p : V(NM79) = 295.275 mV
          n : V(X79.nVCR1) = 295.275 mV
          v = 0 V
          i = -6.78471e-24 A
        pwr = -0 W

Instance: X80.vISample of MTJT
Model: vsource
Primitive: vsource
          p : V(NM80) = 295.275 mV
          n : V(X80.nVCR1) = 295.275 mV
          v = 0 V
          i = -5.35075e-24 A
        pwr = -0 W

Instance: X81.vISample of MTJT
Model: vsource
Primitive: vsource
          p : V(NM81) = 295.275 mV
          n : V(X81.nVCR1) = 295.275 mV
          v = 0 V
          i = 3.74369e-24 A
        pwr = 0 W

Instance: X82.vISample of MTJT
Model: vsource
Primitive: vsource
          p : V(NM82) = 295.275 mV
          n : V(X82.nVCR1) = 295.275 mV
          v = 0 V
          i = 22.6133e-24 A
        pwr = 0 W

Instance: X83.vISample of MTJT
Model: vsource
Primitive: vsource
          p : V(NM83) = 295.275 mV
          n : V(X83.nVCR1) = 295.275 mV
          v = 0 V
          i = -7.35832e-24 A
        pwr = -0 W

Instance: X84.vISample of MTJT
Model: vsource
Primitive: vsource
          p : V(NM84) = 295.275 mV
          n : V(X84.nVCR1) = 295.275 mV
          v = 0 V
          i = -12.2945e-24 A
        pwr = -0 W

Instance: X85.vISample of MTJT
Model: vsource
Primitive: vsource
          p : V(NM85) = 295.275 mV
          n : V(X85.nVCR1) = 295.275 mV
          v = 0 V
          i = 18.4488e-24 A
        pwr = 0 W

Instance: X86.vISample of MTJT
Model: vsource
Primitive: vsource
          p : V(NM86) = 295.275 mV
          n : V(X86.nVCR1) = 295.275 mV
          v = 0 V
          i = -3.59605e-24 A
        pwr = -0 W

Instance: X87.vISample of MTJT
Model: vsource
Primitive: vsource
          p : V(NM87) = 295.275 mV
          n : V(X87.nVCR1) = 295.275 mV
          v = 0 V
          i = -14.4279e-24 A
        pwr = -0 W

Instance: X88.vISample of MTJT
Model: vsource
Primitive: vsource
          p : V(NM88) = 295.275 mV
          n : V(X88.nVCR1) = 295.275 mV
          v = 0 V
          i = -18.2137e-24 A
        pwr = -0 W

Instance: X89.vISample of MTJT
Model: vsource
Primitive: vsource
          p : V(NM89) = 295.275 mV
          n : V(X89.nVCR1) = 295.275 mV
          v = 0 V
          i = 20.3833e-24 A
        pwr = 0 W

Instance: X90.vISample of MTJT
Model: vsource
Primitive: vsource
          p : V(NM90) = 295.275 mV
          n : V(X90.nVCR1) = 295.275 mV
          v = 0 V
          i = -8.17781e-24 A
        pwr = -0 W

Instance: X91.vISample of MTJT
Model: vsource
Primitive: vsource
          p : V(NM91) = 295.275 mV
          n : V(X91.nVCR1) = 295.275 mV
          v = 0 V
          i = -7.4248e-24 A
        pwr = -0 W

Instance: X92.vISample of MTJT
Model: vsource
Primitive: vsource
          p : V(NM92) = 295.275 mV
          n : V(X92.nVCR1) = 295.275 mV
          v = 0 V
          i = 18.4486e-24 A
        pwr = 0 W

Instance: X93.vISample of MTJT
Model: vsource
Primitive: vsource
          p : V(NM93) = 295.275 mV
          n : V(X93.nVCR1) = 295.275 mV
          v = 0 V
          i = -11.2342e-24 A
        pwr = -0 W

Instance: X94.vISample of MTJT
Model: vsource
Primitive: vsource
          p : V(NM94) = 295.275 mV
          n : V(X94.nVCR1) = 295.275 mV
          v = 0 V
          i = -1.64643e-24 A
        pwr = -0 W

Instance: X95.vISample of MTJT
Model: vsource
Primitive: vsource
          p : V(NM95) = 295.275 mV
          n : V(X95.nVCR1) = 295.275 mV
          v = 0 V
          i = -349.025e-27 A
        pwr = -0 W

Instance: X96.vISample of MTJT
Model: vsource
Primitive: vsource
          p : V(NM96) = 295.275 mV
          n : V(X96.nVCR1) = 295.275 mV
          v = 0 V
          i = 1.08462e-24 A
        pwr = 0 W

Instance: X97.vISample of MTJT
Model: vsource
Primitive: vsource
          p : V(NM97) = 295.275 mV
          n : V(X97.nVCR1) = 295.275 mV
          v = 0 V
          i = -15.7917e-30 A
        pwr = -0 W

Instance: X98.vISample of MTJT
Model: vsource
Primitive: vsource
          p : V(NM98) = 295.275 mV
          n : V(X98.nVCR1) = 295.275 mV
          v = 0 V
          i = -26.3108e-24 A
        pwr = -0 W

Instance: X99.vISample of MTJT
Model: vsource
Primitive: vsource
          p : V(NM99) = 295.275 mV
          n : V(X99.nVCR1) = 295.275 mV
          v = 0 V
          i = -9.58454e-24 A
        pwr = -0 W

Instance: X100.vISample of MTJT
Model: vsource
Primitive: vsource
          p : V(NM100) = 295.275 mV
          n : V(X100.nVCR1) = 295.275 mV
          v = 0 V
          i = -18.9642e-24 A
        pwr = -0 W

Instance: X101.vISample of MTJT
Model: vsource
Primitive: vsource
          p : V(NM101) = 295.275 mV
          n : V(X101.nVCR1) = 295.275 mV
          v = 0 V
          i = -9.58391e-24 A
        pwr = -0 W

Instance: X102.vISample of MTJT
Model: vsource
Primitive: vsource
          p : V(NM102) = 295.275 mV
          n : V(X102.nVCR1) = 295.275 mV
          v = 0 V
          i = 26.4698e-24 A
        pwr = 0 W

Instance: X103.vISample of MTJT
Model: vsource
Primitive: vsource
          p : V(NM103) = 295.275 mV
          n : V(X103.nVCR1) = 295.275 mV
          v = 0 V
          i = 7.14278e-24 A
        pwr = 0 W

Instance: X104.vISample of MTJT
Model: vsource
Primitive: vsource
          p : V(NM104) = 295.275 mV
          n : V(X104.nVCR1) = 295.275 mV
          v = 0 V
          i = 7.14253e-24 A
        pwr = 0 W

Instance: X105.vISample of MTJT
Model: vsource
Primitive: vsource
          p : V(NM105) = 295.275 mV
          n : V(X105.nVCR1) = 295.275 mV
          v = 0 V
          i = -26.3116e-24 A
        pwr = -0 W

Instance: X106.vISample of MTJT
Model: vsource
Primitive: vsource
          p : V(NM106) = 295.275 mV
          n : V(X106.nVCR1) = 295.275 mV
          v = 0 V
          i = 23.8698e-24 A
        pwr = 0 W

Instance: X107.vISample of MTJT
Model: vsource
Primitive: vsource
          p : V(NM107) = 295.275 mV
          n : V(X107.nVCR1) = 295.275 mV
          v = 0 V
          i = 23.8696e-24 A
        pwr = 0 W

Instance: X108.vISample of MTJT
Model: vsource
Primitive: vsource
          p : V(NM108) = 295.275 mV
          n : V(X108.nVCR1) = 295.275 mV
          v = 0 V
          i = -9.58419e-24 A
        pwr = -0 W

Instance: X109.vISample of MTJT
Model: vsource
Primitive: vsource
          p : V(NM109) = 295.275 mV
          n : V(X109.nVCR1) = 295.275 mV
          v = 0 V
          i = 7.14307e-24 A
        pwr = 0 W

Instance: X110.vISample of MTJT
Model: vsource
Primitive: vsource
          p : V(NM110) = 295.275 mV
          n : V(X110.nVCR1) = 295.275 mV
          v = 0 V
          i = 7.14282e-24 A
        pwr = 0 W

Instance: X111.vISample of MTJT
Model: vsource
Primitive: vsource
          p : V(NM111) = 295.275 mV
          n : V(X111.nVCR1) = 295.275 mV
          v = 0 V
          i = -9.58416e-24 A
        pwr = -0 W

Instance: X112.vISample of MTJT
Model: vsource
Primitive: vsource
          p : V(NM112) = 295.275 mV
          n : V(X112.nVCR1) = 295.275 mV
          v = 0 V
          i = 7.14253e-24 A
        pwr = 0 W

Instance: X113.vISample of MTJT
Model: vsource
Primitive: vsource
          p : V(NM113) = 295.275 mV
          n : V(X113.nVCR1) = 295.275 mV
          v = 0 V
          i = -2.69161e-24 A
        pwr = -0 W

Instance: X114.vISample of MTJT
Model: vsource
Primitive: vsource
          p : V(NM114) = 295.275 mV
          n : V(X114.nVCR1) = 295.275 mV
          v = 0 V
          i = 35.2947e-24 A
        pwr = 0 W

Instance: X115.vISample of MTJT
Model: vsource
Primitive: vsource
          p : V(NM115) = 295.275 mV
          n : V(X115.nVCR1) = 295.275 mV
          v = 0 V
          i = -13.7931e-24 A
        pwr = -0 W

Instance: X116.vISample of MTJT
Model: vsource
Primitive: vsource
          p : V(NM116) = 295.275 mV
          n : V(X116.nVCR1) = 295.275 mV
          v = 0 V
          i = 387.335e-27 A
        pwr = 0 W

Instance: X117.vISample of MTJT
Model: vsource
Primitive: vsource
          p : V(NM117) = 295.275 mV
          n : V(X117.nVCR1) = 295.275 mV
          v = 0 V
          i = 12.013e-24 A
        pwr = 0 W

Instance: X118.vISample of MTJT
Model: vsource
Primitive: vsource
          p : V(NM118) = 295.275 mV
          n : V(X118.nVCR1) = 295.275 mV
          v = 0 V
          i = -21.7622e-24 A
        pwr = -0 W

Instance: X119.vISample of MTJT
Model: vsource
Primitive: vsource
          p : V(NM119) = 295.275 mV
          n : V(X119.nVCR1) = 295.275 mV
          v = 0 V
          i = -1.7463e-24 A
        pwr = -0 W

Instance: X120.vISample of MTJT
Model: vsource
Primitive: vsource
          p : V(NM120) = 295.275 mV
          n : V(X120.nVCR1) = 295.275 mV
          v = 0 V
          i = -5.5326e-24 A
        pwr = -0 W

Instance: X121.vISample of MTJT
Model: vsource
Primitive: vsource
          p : V(NM121) = 295.275 mV
          n : V(X121.nVCR1) = 295.275 mV
          v = 0 V
          i = 13.9482e-24 A
        pwr = 0 W

Instance: X122.vISample of MTJT
Model: vsource
Primitive: vsource
          p : V(NM122) = 295.275 mV
          n : V(X122.nVCR1) = 295.275 mV
          v = 0 V
          i = 4.50398e-24 A
        pwr = 0 W

Instance: X123.vISample of MTJT
Model: vsource
Primitive: vsource
          p : V(NM123) = 295.275 mV
          n : V(X123.nVCR1) = 295.275 mV
          v = 0 V
          i = -13.8599e-24 A
        pwr = -0 W

Instance: X124.vISample of MTJT
Model: vsource
Primitive: vsource
          p : V(NM124) = 295.275 mV
          n : V(X124.nVCR1) = 295.275 mV
          v = 0 V
          i = 12.0133e-24 A
        pwr = 0 W

Instance: X125.vISample of MTJT
Model: vsource
Primitive: vsource
          p : V(NM125) = 295.275 mV
          n : V(X125.nVCR1) = 295.275 mV
          v = 0 V
          i = 1.44694e-24 A
        pwr = 0 W

Instance: X126.vISample of MTJT
Model: vsource
Primitive: vsource
          p : V(NM126) = 295.275 mV
          n : V(X126.nVCR1) = 295.275 mV
          v = 0 V
          i = -8.08161e-24 A
        pwr = -0 W

Instance: X127.vISample of MTJT
Model: vsource
Primitive: vsource
          p : V(NM127) = 295.275 mV
          n : V(X127.nVCR1) = 295.275 mV
          v = 0 V
          i = -6.7847e-24 A
        pwr = -0 W

Instance: X128.vISample of MTJT
Model: vsource
Primitive: vsource
          p : V(NM128) = 295.275 mV
          n : V(X128.nVCR1) = 295.275 mV
          v = 0 V
          i = -5.35043e-24 A
        pwr = -0 W

Maximum and minimum parameter values for vsource: 
            max v = 1.6 V on Vvdd
            min v = 0 V on Vbl1
            max i = 535.001 nA on Vbl1
            min i = -17.2472 uA on Vvdd
          min |i| = -15.7917e-30 A on Vtest97
          max pwr = 0 W on Vbl1
          min pwr = -27.5956 uW on Vvdd


Total Power Dissipation = 27.5956 uW.


Convergence achieved in 15 iterations.
DC simulation time: CPU = 377.744 ms, elapsed = 398.826 ms.
Total time required for dc analysis `LeakStat': CPU = 377.89 ms, elapsed = 398.973 ms.
Time accumulated: CPU = 172.769 s (2m  52.8s), elapsed = 174.202 s (2m  54.2s).
Peak resident memory used = 99.4 Mbytes.


Aggregate audit (12:51:51 PM, Sun Feb 7, 2021):
Time used: CPU = 173 s (2m  52.8s), elapsed = 174 s (2m  54.3s), util. = 99.1%.
Time spent in licensing: elapsed = 32.4 ms.
Peak memory used = 99.8 Mbytes.
Simulation started at: 12:48:57 PM, Sun Feb 7, 2021, ended at: 12:51:51 PM, Sun Feb 7, 2021, with elapsed time (wall clock): 174 s (2m  54.3s).
spectre completes with 0 errors, 1 warning, and 416 notices.
